# generated using pymatgen
data_Cr4Fe9N4
_symmetry_space_group_name_H-M   'P 1'
_cell_length_a   3.50615000
_cell_length_b   12.00020000
_cell_length_c   26.88990000
_cell_angle_alpha   90.00000000
_cell_angle_beta   90.00000000
_cell_angle_gamma   90.00000000
_symmetry_Int_Tables_number   1
_chemical_formula_structural   Cr4Fe9N4
_chemical_formula_sum   'Cr16 Fe36 N16'
_cell_volume   1131.37913062
_cell_formula_units_Z   4
loop_
 _symmetry_equiv_pos_site_id
 _symmetry_equiv_pos_as_xyz
  1  'x, y, z'
loop_
 _atom_site_type_symbol
 _atom_site_label
 _atom_site_symmetry_multiplicity
 _atom_site_fract_x
 _atom_site_fract_y
 _atom_site_fract_z
 _atom_site_occupancy
  Cr  Cr1  1  0.00000000  0.00000000  0.23378000  1.0
  Cr  Cr2  1  0.00000000  0.25000000  0.23378000  1.0
  Cr  Cr3  1  0.50000000  0.12500000  0.15585000  1.0
  Cr  Cr4  1  0.50000000  0.37500000  0.15585000  1.0
  Cr  Cr17  1  0.00000000  0.00000000  0.07793000  1.0
  Cr  Cr18  1  0.00000000  0.25000000  0.07793000  1.0
  Cr  Cr19  1  0.50000000  0.12500000  0.00000000  1.0
  Cr  Cr20  1  0.50000000  0.37500000  0.00000000  1.0
  Cr  Cr33  1  0.00000000  0.50000000  0.23378000  1.0
  Cr  Cr34  1  0.00000000  0.75000000  0.23378000  1.0
  Cr  Cr35  1  0.50000000  0.62500000  0.15585000  1.0
  Cr  Cr36  1  0.50000000  0.87500000  0.15585000  1.0
  Cr  Cr49  1  0.00000000  0.50000000  0.07793000  1.0
  Cr  Cr50  1  0.00000000  0.75000000  0.07793000  1.0
  Cr  Cr51  1  0.50000000  0.62500000  0.00000000  1.0
  Cr  Cr52  1  0.50000000  0.87500000  0.00000000  1.0
  Fe  Fe65  1  0.99332000  0.71844000  0.62811000  1.0
  Fe  Fe66  1  0.49332000  0.55431000  0.61520000  1.0
  Fe  Fe67  1  0.49332000  0.73916000  0.57568000  1.0
  Fe  Fe68  1  0.99332000  0.57502000  0.56277000  1.0
  Fe  Fe69  1  0.99332000  0.39017000  0.60228000  1.0
  Fe  Fe70  1  0.49332000  0.22604000  0.58937000  1.0
  Fe  Fe71  1  0.49332000  0.41089000  0.54985000  1.0
  Fe  Fe72  1  0.99332000  0.24675000  0.53694000  1.0
  Fe  Fe73  1  0.99332000  0.06190000  0.57645000  1.0
  Fe  Fe74  1  0.49332000  0.89777000  0.56354000  1.0
  Fe  Fe75  1  0.49332000  0.08262000  0.52402000  1.0
  Fe  Fe76  1  0.99332000  0.91848000  0.51111000  1.0
  Fe  Fe77  1  0.99332000  0.75987000  0.52326000  1.0
  Fe  Fe78  1  0.49332000  0.59573000  0.51034000  1.0
  Fe  Fe79  1  0.49332000  0.78058000  0.47083000  1.0
  Fe  Fe80  1  0.99332000  0.61645000  0.45791000  1.0
  Fe  Fe81  1  0.99332000  0.43160000  0.49743000  1.0
  Fe  Fe82  1  0.49332000  0.26746000  0.48451000  1.0
  Fe  Fe83  1  0.49332000  0.45231000  0.44500000  1.0
  Fe  Fe84  1  0.99332000  0.28818000  0.43208000  1.0
  Fe  Fe85  1  0.99332000  0.10333000  0.47160000  1.0
  Fe  Fe86  1  0.49332000  0.93920000  0.45868000  1.0
  Fe  Fe87  1  0.49332000  0.12404000  0.41917000  1.0
  Fe  Fe88  1  0.99332000  0.95991000  0.40625000  1.0
  Fe  Fe89  1  0.99332000  0.80130000  0.41840000  1.0
  Fe  Fe90  1  0.49332000  0.63716000  0.40549000  1.0
  Fe  Fe91  1  0.49332000  0.82201000  0.36597000  1.0
  Fe  Fe92  1  0.99332000  0.65788000  0.35306000  1.0
  Fe  Fe93  1  0.99332000  0.47303000  0.39257000  1.0
  Fe  Fe94  1  0.49332000  0.30889000  0.37966000  1.0
  Fe  Fe95  1  0.49332000  0.49374000  0.34014000  1.0
  Fe  Fe96  1  0.99332000  0.32961000  0.32723000  1.0
  Fe  Fe97  1  0.99332000  0.14476000  0.36674000  1.0
  Fe  Fe98  1  0.49332000  0.98062000  0.35383000  1.0
  Fe  Fe99  1  0.49332000  0.16547000  0.31431000  1.0
  Fe  Fe100  1  0.99332000  0.00134000  0.30140000  1.0
  N  N9  1  0.50000000  0.12500000  0.23378000  1.0
  N  N10  1  0.50000000  0.37500000  0.23378000  1.0
  N  N11  1  0.00000000  0.00000000  0.15585000  1.0
  N  N12  1  0.00000000  0.25000000  0.15585000  1.0
  N  N25  1  0.50000000  0.12500000  0.07793000  1.0
  N  N26  1  0.50000000  0.37500000  0.07793000  1.0
  N  N27  1  0.00000000  0.00000000  0.00000000  1.0
  N  N28  1  0.00000000  0.25000000  0.00000000  1.0
  N  N41  1  0.50000000  0.62500000  0.23378000  1.0
  N  N42  1  0.50000000  0.87500000  0.23378000  1.0
  N  N43  1  0.00000000  0.50000000  0.15585000  1.0
  N  N44  1  0.00000000  0.75000000  0.15585000  1.0
  N  N57  1  0.50000000  0.62500000  0.07793000  1.0
  N  N58  1  0.50000000  0.87500000  0.07793000  1.0
  N  N59  1  0.00000000  0.50000000  0.00000000  1.0
  N  N60  1  0.00000000  0.75000000  1.00000000  1.0
