data_Layer_first
_audit_creation_date              2023-09-04
_audit_creation_method            'Materials Studio'
_symmetry_space_group_name_H-M    'P1'
_symmetry_Int_Tables_number       1
_symmetry_cell_setting            triclinic
loop_
_symmetry_equiv_pos_as_xyz
  x,y,z
_cell_length_a                    12.0002
_cell_length_b                    7.0123
_cell_length_c                    26.8899
_cell_angle_alpha                 90.0000
_cell_angle_beta                  90.0000
_cell_angle_gamma                 90.0000
loop_
_atom_site_label
_atom_site_type_symbol
_atom_site_fract_x
_atom_site_fract_y
_atom_site_fract_z
_atom_site_U_iso_or_equiv
_atom_site_adp_type
_atom_site_occupancy
Cr1    Cr    0.00000   1.00000   0.23378   0.00000  Uiso   1.00
Cr2    Cr    0.25000   0.50000   0.23378   0.00000  Uiso   1.00
Cr3    Cr    0.12500   0.75000   0.15585   0.00000  Uiso   1.00
Cr4    Cr    0.37500   0.25000   0.15585   0.00000  Uiso   1.00
Cr5    Cr    0.12500   0.25000   0.15585   0.00000  Uiso   1.00
Cr6    Cr    0.37500   0.75000   0.15585   0.00000  Uiso   1.00
Cr7    Cr    0.00000   0.50000   0.23378   0.00000  Uiso   1.00
Cr8    Cr    0.25000   1.00000   0.23378   0.00000  Uiso   1.00
N9     N     0.12500   0.75000   0.23378   0.00000  Uiso   1.00
N10    N     0.37500   0.25000   0.23378   0.00000  Uiso   1.00
N11    N     0.00000   1.00000   0.15585   0.00000  Uiso   1.00
N12    N     0.25000   0.50000   0.15585   0.00000  Uiso   1.00
N13    N     0.00000   0.50000   0.15585   0.00000  Uiso   1.00
N14    N     0.25000   1.00000   0.15585   0.00000  Uiso   1.00
N15    N     0.12500   0.25000   0.23378   0.00000  Uiso   1.00
N16    N     0.37500   0.75000   0.23378   0.00000  Uiso   1.00
Cr17   Cr    0.00000   1.00000   0.07793   0.00000  Uiso   1.00
Cr18   Cr    0.25000   0.50000   0.07793   0.00000  Uiso   1.00
Cr19   Cr    0.12500   0.75000  -0.00000   0.00000  Uiso   1.00
Cr20   Cr    0.37500   0.25000  -0.00000   0.00000  Uiso   1.00
Cr21   Cr    0.12500   0.25000  -0.00000   0.00000  Uiso   1.00
Cr22   Cr    0.37500   0.75000  -0.00000   0.00000  Uiso   1.00
Cr23   Cr    0.00000   0.50000   0.07793   0.00000  Uiso   1.00
Cr24   Cr    0.25000   1.00000   0.07793   0.00000  Uiso   1.00
N25    N     0.12500   0.75000   0.07793   0.00000  Uiso   1.00
N26    N     0.37500   0.25000   0.07793   0.00000  Uiso   1.00
N27    N     0.00000   1.00000  -0.00000   0.00000  Uiso   1.00
N28    N     0.25000   0.50000  -0.00000   0.00000  Uiso   1.00
N29    N     0.00000   0.50000  -0.00000   0.00000  Uiso   1.00
N30    N     0.25000   1.00000  -0.00000   0.00000  Uiso   1.00
N31    N     0.12500   0.25000   0.07793   0.00000  Uiso   1.00
N32    N     0.37500   0.75000   0.07793   0.00000  Uiso   1.00
Cr33   Cr    0.50000   1.00000   0.23378   0.00000  Uiso   1.00
Cr34   Cr    0.75000   0.50000   0.23378   0.00000  Uiso   1.00
Cr35   Cr    0.62500   0.75000   0.15585   0.00000  Uiso   1.00
Cr36   Cr    0.87500   0.25000   0.15585   0.00000  Uiso   1.00
Cr37   Cr    0.62500   0.25000   0.15585   0.00000  Uiso   1.00
Cr38   Cr    0.87500   0.75000   0.15585   0.00000  Uiso   1.00
Cr39   Cr    0.50000   0.50000   0.23378   0.00000  Uiso   1.00
Cr40   Cr    0.75000   1.00000   0.23378   0.00000  Uiso   1.00
N41    N     0.62500   0.75000   0.23378   0.00000  Uiso   1.00
N42    N     0.87500   0.25000   0.23378   0.00000  Uiso   1.00
N43    N     0.50000   1.00000   0.15585   0.00000  Uiso   1.00
N44    N     0.75000   0.50000   0.15585   0.00000  Uiso   1.00
N45    N     0.50000   0.50000   0.15585   0.00000  Uiso   1.00
N46    N     0.75000   1.00000   0.15585   0.00000  Uiso   1.00
N47    N     0.62500   0.25000   0.23378   0.00000  Uiso   1.00
N48    N     0.87500   0.75000   0.23378   0.00000  Uiso   1.00
Cr49   Cr    0.50000   1.00000   0.07793   0.00000  Uiso   1.00
Cr50   Cr    0.75000   0.50000   0.07793   0.00000  Uiso   1.00
Cr51   Cr    0.62500   0.75000  -0.00000   0.00000  Uiso   1.00
Cr52   Cr    0.87500   0.25000  -0.00000   0.00000  Uiso   1.00
Cr53   Cr    0.62500   0.25000  -0.00000   0.00000  Uiso   1.00
Cr54   Cr    0.87500   0.75000  -0.00000   0.00000  Uiso   1.00
Cr55   Cr    0.50000   0.50000   0.07793   0.00000  Uiso   1.00
Cr56   Cr    0.75000   1.00000   0.07793   0.00000  Uiso   1.00
N57    N     0.62500   0.75000   0.07793   0.00000  Uiso   1.00
N58    N     0.87500   0.25000   0.07793   0.00000  Uiso   1.00
N59    N     0.50000   1.00000  -0.00000   0.00000  Uiso   1.00
N60    N     0.75000   0.50000  -0.00000   0.00000  Uiso   1.00
N61    N     0.50000   0.50000  -0.00000   0.00000  Uiso   1.00
N62    N     0.75000   1.00000  -0.00000   0.00000  Uiso   1.00
N63    N     0.62500   0.25000   0.07793   0.00000  Uiso   1.00
N64    N     0.87500   0.75000   0.07793   0.00000  Uiso   1.00
Fe65   Fe    0.71844  -0.00334   0.62811   0.00000  Uiso   1.00
Fe66   Fe    0.55431   0.24666   0.61520   0.00000  Uiso   1.00
Fe67   Fe    0.73916   0.24666   0.57568   0.00000  Uiso   1.00
Fe68   Fe    0.57502  -0.00334   0.56277   0.00000  Uiso   1.00
Fe69   Fe    0.39017  -0.00334   0.60228   0.00000  Uiso   1.00
Fe70   Fe    0.22604   0.24666   0.58937   0.00000  Uiso   1.00
Fe71   Fe    0.41089   0.24666   0.54985   0.00000  Uiso   1.00
Fe72   Fe    0.24675  -0.00334   0.53694   0.00000  Uiso   1.00
Fe73   Fe    0.06190  -0.00334   0.57645   0.00000  Uiso   1.00
Fe74   Fe   -0.10223   0.24666   0.56354   0.00000  Uiso   1.00
Fe75   Fe    0.08262   0.24666   0.52402   0.00000  Uiso   1.00
Fe76   Fe   -0.08152  -0.00334   0.51111   0.00000  Uiso   1.00
Fe77   Fe    0.75987  -0.00334   0.52326   0.00000  Uiso   1.00
Fe78   Fe    0.59573   0.24666   0.51034   0.00000  Uiso   1.00
Fe79   Fe    0.78058   0.24666   0.47083   0.00000  Uiso   1.00
Fe80   Fe    0.61645  -0.00334   0.45791   0.00000  Uiso   1.00
Fe81   Fe    0.43160  -0.00334   0.49743   0.00000  Uiso   1.00
Fe82   Fe    0.26746   0.24666   0.48451   0.00000  Uiso   1.00
Fe83   Fe    0.45231   0.24666   0.44500   0.00000  Uiso   1.00
Fe84   Fe    0.28818  -0.00334   0.43208   0.00000  Uiso   1.00
Fe85   Fe    0.10333  -0.00334   0.47160   0.00000  Uiso   1.00
Fe86   Fe   -0.06080   0.24666   0.45868   0.00000  Uiso   1.00
Fe87   Fe    0.12404   0.24666   0.41917   0.00000  Uiso   1.00
Fe88   Fe   -0.04009  -0.00334   0.40625   0.00000  Uiso   1.00
Fe89   Fe    0.80130  -0.00334   0.41840   0.00000  Uiso   1.00
Fe90   Fe    0.63716   0.24666   0.40549   0.00000  Uiso   1.00
Fe91   Fe    0.82201   0.24666   0.36597   0.00000  Uiso   1.00
Fe92   Fe    0.65788  -0.00334   0.35306   0.00000  Uiso   1.00
Fe93   Fe    0.47303  -0.00334   0.39257   0.00000  Uiso   1.00
Fe94   Fe    0.30889   0.24666   0.37966   0.00000  Uiso   1.00
Fe95   Fe    0.49374   0.24666   0.34014   0.00000  Uiso   1.00
Fe96   Fe    0.32961  -0.00334   0.32723   0.00000  Uiso   1.00
Fe97   Fe    0.14476  -0.00334   0.36674   0.00000  Uiso   1.00
Fe98   Fe   -0.01938   0.24666   0.35383   0.00000  Uiso   1.00
Fe99   Fe    0.16547   0.24666   0.31431   0.00000  Uiso   1.00
Fe100  Fe    0.00134  -0.00334   0.30140   0.00000  Uiso   1.00
Fe101  Fe    0.71844   0.49666   0.62811   0.00000  Uiso   1.00
Fe102  Fe    0.55431   0.74666   0.61520   0.00000  Uiso   1.00
Fe103  Fe    0.73916   0.74666   0.57568   0.00000  Uiso   1.00
Fe104  Fe    0.57502   0.49666   0.56277   0.00000  Uiso   1.00
Fe105  Fe    0.39017   0.49666   0.60228   0.00000  Uiso   1.00
Fe106  Fe    0.22604   0.74666   0.58937   0.00000  Uiso   1.00
Fe107  Fe    0.41089   0.74666   0.54985   0.00000  Uiso   1.00
Fe108  Fe    0.24675   0.49666   0.53694   0.00000  Uiso   1.00
Fe109  Fe    0.06190   0.49666   0.57645   0.00000  Uiso   1.00
Fe110  Fe   -0.10223   0.74666   0.56354   0.00000  Uiso   1.00
Fe111  Fe    0.08262   0.74666   0.52402   0.00000  Uiso   1.00
Fe112  Fe   -0.08152   0.49666   0.51111   0.00000  Uiso   1.00
Fe113  Fe    0.75987   0.49666   0.52326   0.00000  Uiso   1.00
Fe114  Fe    0.59573   0.74666   0.51034   0.00000  Uiso   1.00
Fe115  Fe    0.78058   0.74666   0.47083   0.00000  Uiso   1.00
Fe116  Fe    0.61645   0.49666   0.45791   0.00000  Uiso   1.00
Fe117  Fe    0.43160   0.49666   0.49743   0.00000  Uiso   1.00
Fe118  Fe    0.26746   0.74666   0.48451   0.00000  Uiso   1.00
Fe119  Fe    0.45231   0.74666   0.44500   0.00000  Uiso   1.00
Fe120  Fe    0.28818   0.49666   0.43208   0.00000  Uiso   1.00
Fe121  Fe    0.10333   0.49666   0.47160   0.00000  Uiso   1.00
Fe122  Fe   -0.06080   0.74666   0.45868   0.00000  Uiso   1.00
Fe123  Fe    0.12404   0.74666   0.41917   0.00000  Uiso   1.00
Fe124  Fe   -0.04009   0.49666   0.40625   0.00000  Uiso   1.00
Fe125  Fe    0.80130   0.49666   0.41840   0.00000  Uiso   1.00
Fe126  Fe    0.63716   0.74666   0.40549   0.00000  Uiso   1.00
Fe127  Fe    0.82201   0.74666   0.36597   0.00000  Uiso   1.00
Fe128  Fe    0.65788   0.49666   0.35306   0.00000  Uiso   1.00
Fe129  Fe    0.47303   0.49666   0.39257   0.00000  Uiso   1.00
Fe130  Fe    0.30889   0.74666   0.37966   0.00000  Uiso   1.00
Fe131  Fe    0.49374   0.74666   0.34014   0.00000  Uiso   1.00
Fe132  Fe    0.32961   0.49666   0.32723   0.00000  Uiso   1.00
Fe133  Fe    0.14476   0.49666   0.36674   0.00000  Uiso   1.00
Fe134  Fe   -0.01938   0.74666   0.35383   0.00000  Uiso   1.00
Fe135  Fe    0.16547   0.74666   0.31431   0.00000  Uiso   1.00
Fe136  Fe    0.00134   0.49666   0.30140   0.00000  Uiso   1.00
