# generated using pymatgen
data_Cr2Fe3N2
_symmetry_space_group_name_H-M   'P 1'
_cell_length_a   3.50620000
_cell_length_b   12.00020000
_cell_length_c   28.98490000
_cell_angle_alpha   90.00000000
_cell_angle_beta   90.00000000
_cell_angle_gamma   90.00000000
_symmetry_Int_Tables_number   1
_chemical_formula_structural   Cr2Fe3N2
_chemical_formula_sum   'Cr24 Fe36 N24'
_cell_volume   1219.54260193
_cell_formula_units_Z   12
loop_
 _symmetry_equiv_pos_site_id
 _symmetry_equiv_pos_as_xyz
  1  'x, y, z'
loop_
 _atom_site_type_symbol
 _atom_site_label
 _atom_site_symmetry_multiplicity
 _atom_site_fract_x
 _atom_site_fract_y
 _atom_site_fract_z
 _atom_site_occupancy
  Cr  Cr1  1  0.14854000  0.00296000  0.38885000  1.0
  Cr  Cr2  1  0.64854000  0.37796000  0.31093000  1.0
  Cr  Cr3  1  0.64854000  0.12796000  0.31093000  1.0
  Cr  Cr4  1  0.14854000  0.25296000  0.38885000  1.0
  Cr  Cr9  1  0.14854000  0.00296000  0.23300000  1.0
  Cr  Cr10  1  0.64854000  0.37796000  0.15507000  1.0
  Cr  Cr11  1  0.64854000  0.12796000  0.15507000  1.0
  Cr  Cr12  1  0.14854000  0.25296000  0.23300000  1.0
  Cr  Cr17  1  0.14854000  0.50296000  0.38885000  1.0
  Cr  Cr18  1  0.64854000  0.87796000  0.31093000  1.0
  Cr  Cr19  1  0.64854000  0.62796000  0.31093000  1.0
  Cr  Cr20  1  0.14854000  0.75296000  0.38885000  1.0
  Cr  Cr25  1  0.14854000  0.50296000  0.23300000  1.0
  Cr  Cr26  1  0.64854000  0.87796000  0.15507000  1.0
  Cr  Cr27  1  0.64854000  0.62796000  0.15507000  1.0
  Cr  Cr28  1  0.14854000  0.75296000  0.23300000  1.0
  Cr  Cr69  1  0.13208000  0.00461000  0.07726000  1.0
  Cr  Cr70  1  0.63208000  0.37961000  0.99934000  1.0
  Cr  Cr71  1  0.63208000  0.12961000  0.99934000  1.0
  Cr  Cr72  1  0.13208000  0.25461000  0.07726000  1.0
  Cr  Cr77  1  0.13208000  0.50461000  0.07726000  1.0
  Cr  Cr78  1  0.63208000  0.87961000  0.99934000  1.0
  Cr  Cr79  1  0.63208000  0.62961000  0.99934000  1.0
  Cr  Cr80  1  0.13208000  0.75461000  0.07726000  1.0
  Fe  Fe33  1  0.14186000  0.72140000  0.78319000  1.0
  Fe  Fe34  1  0.64186000  0.55726000  0.77027000  1.0
  Fe  Fe35  1  0.64186000  0.74211000  0.73076000  1.0
  Fe  Fe36  1  0.14186000  0.57798000  0.71784000  1.0
  Fe  Fe37  1  0.14186000  0.39313000  0.75735000  1.0
  Fe  Fe38  1  0.64186000  0.22899000  0.74444000  1.0
  Fe  Fe39  1  0.64186000  0.41384000  0.70493000  1.0
  Fe  Fe40  1  0.14186000  0.24971000  0.69201000  1.0
  Fe  Fe41  1  0.14186000  0.06486000  0.73152000  1.0
  Fe  Fe42  1  0.64186000  0.90072000  0.71861000  1.0
  Fe  Fe43  1  0.64186000  0.08557000  0.67910000  1.0
  Fe  Fe44  1  0.14186000  0.92144000  0.66618000  1.0
  Fe  Fe45  1  0.14186000  0.76283000  0.67833000  1.0
  Fe  Fe46  1  0.64186000  0.59869000  0.66541000  1.0
  Fe  Fe47  1  0.64186000  0.78354000  0.62590000  1.0
  Fe  Fe48  1  0.14186000  0.61941000  0.61299000  1.0
  Fe  Fe49  1  0.14186000  0.43456000  0.65250000  1.0
  Fe  Fe50  1  0.64186000  0.27042000  0.63958000  1.0
  Fe  Fe51  1  0.64186000  0.45527000  0.60007000  1.0
  Fe  Fe52  1  0.14186000  0.29114000  0.58716000  1.0
  Fe  Fe53  1  0.14186000  0.10629000  0.62667000  1.0
  Fe  Fe54  1  0.64186000  0.94215000  0.61375000  1.0
  Fe  Fe55  1  0.64186000  0.12700000  0.57424000  1.0
  Fe  Fe56  1  0.14186000  0.96287000  0.56133000  1.0
  Fe  Fe57  1  0.14186000  0.80425000  0.57347000  1.0
  Fe  Fe58  1  0.64186000  0.64012000  0.56056000  1.0
  Fe  Fe59  1  0.64186000  0.82497000  0.52105000  1.0
  Fe  Fe60  1  0.14186000  0.66083000  0.50813000  1.0
  Fe  Fe61  1  0.14186000  0.47598000  0.54764000  1.0
  Fe  Fe62  1  0.64186000  0.31185000  0.53473000  1.0
  Fe  Fe63  1  0.64186000  0.49670000  0.49522000  1.0
  Fe  Fe64  1  0.14186000  0.33256000  0.48230000  1.0
  Fe  Fe65  1  0.14186000  0.14771000  0.52181000  1.0
  Fe  Fe66  1  0.64186000  0.98358000  0.50890000  1.0
  Fe  Fe67  1  0.64186000  0.16843000  0.46939000  1.0
  Fe  Fe68  1  0.14186000  0.00429000  0.45647000  1.0
  N  N5  1  0.64854000  0.37796000  0.38885000  1.0
  N  N6  1  0.14854000  0.00296000  0.31093000  1.0
  N  N7  1  0.14854000  0.25296000  0.31093000  1.0
  N  N8  1  0.64854000  0.12796000  0.38885000  1.0
  N  N13  1  0.64854000  0.37796000  0.23300000  1.0
  N  N14  1  0.14854000  0.00296000  0.15507000  1.0
  N  N15  1  0.14854000  0.25296000  0.15507000  1.0
  N  N16  1  0.64854000  0.12796000  0.23300000  1.0
  N  N21  1  0.64854000  0.87796000  0.38885000  1.0
  N  N22  1  0.14854000  0.50296000  0.31093000  1.0
  N  N23  1  0.14854000  0.75296000  0.31093000  1.0
  N  N24  1  0.64854000  0.62796000  0.38885000  1.0
  N  N29  1  0.64854000  0.87796000  0.23300000  1.0
  N  N30  1  0.14854000  0.50296000  0.15507000  1.0
  N  N31  1  0.14854000  0.75296000  0.15507000  1.0
  N  N32  1  0.64854000  0.62796000  0.23300000  1.0
  N  N73  1  0.63208000  0.37961000  0.07726000  1.0
  N  N74  1  0.13208000  0.00461000  0.99934000  1.0
  N  N75  1  0.13208000  0.25461000  0.99934000  1.0
  N  N76  1  0.63208000  0.12961000  0.07726000  1.0
  N  N81  1  0.63208000  0.87961000  0.07726000  1.0
  N  N82  1  0.13208000  0.50461000  0.99934000  1.0
  N  N83  1  0.13208000  0.75461000  0.99934000  1.0
  N  N84  1  0.63208000  0.62961000  0.07726000  1.0
