# generated using pymatgen
data_Cr4Fe9N4
_symmetry_space_group_name_H-M   'P 1'
_cell_length_a   3.30436208
_cell_length_b   11.30955771
_cell_length_c   25.34231729
_cell_angle_alpha   90.00000000
_cell_angle_beta   90.00000000
_cell_angle_gamma   90.00000000
_symmetry_Int_Tables_number   1
_chemical_formula_structural   Cr4Fe9N4
_chemical_formula_sum   'Cr16 Fe36 N16'
_cell_volume   947.06453646
_cell_formula_units_Z   4
loop_
 _symmetry_equiv_pos_site_id
 _symmetry_equiv_pos_as_xyz
  1  'x, y, z'
loop_
 _atom_site_type_symbol
 _atom_site_label
 _atom_site_symmetry_multiplicity
 _atom_site_fract_x
 _atom_site_fract_y
 _atom_site_fract_z
 _atom_site_occupancy
  Cr  Cr0  1  0.00000000  0.00000000  0.76622000  1
  Cr  Cr1  1  0.00000000  0.75000000  0.76622000  1
  Cr  Cr2  1  0.50000000  0.87500000  0.84415000  1
  Cr  Cr3  1  0.50000000  0.62500000  0.84415000  1
  Cr  Cr4  1  0.00000000  0.00000000  0.92207000  1
  Cr  Cr5  1  0.00000000  0.75000000  0.92207000  1
  Cr  Cr6  1  0.50000000  0.87500000  0.00000000  1
  Cr  Cr7  1  0.50000000  0.62500000  0.00000000  1
  Cr  Cr8  1  0.00000000  0.50000000  0.76622000  1
  Cr  Cr9  1  0.00000000  0.25000000  0.76622000  1
  Cr  Cr10  1  0.50000000  0.37500000  0.84415000  1
  Cr  Cr11  1  0.50000000  0.12500000  0.84415000  1
  Cr  Cr12  1  0.00000000  0.50000000  0.92207000  1
  Cr  Cr13  1  0.00000000  0.25000000  0.92207000  1
  Cr  Cr14  1  0.50000000  0.37500000  0.00000000  1
  Cr  Cr15  1  0.50000000  0.12500000  0.00000000  1
  Fe  Fe16  1  0.00668000  0.28156000  0.37189000  1
  Fe  Fe17  1  0.50668000  0.44569000  0.38480000  1
  Fe  Fe18  1  0.50668000  0.26084000  0.42432000  1
  Fe  Fe19  1  0.00668000  0.42498000  0.43723000  1
  Fe  Fe20  1  0.00668000  0.60983000  0.39772000  1
  Fe  Fe21  1  0.50668000  0.77396000  0.41063000  1
  Fe  Fe22  1  0.50668000  0.58911000  0.45015000  1
  Fe  Fe23  1  0.00668000  0.75325000  0.46306000  1
  Fe  Fe24  1  0.00668000  0.93810000  0.42355000  1
  Fe  Fe25  1  0.50668000  0.10223000  0.43646000  1
  Fe  Fe26  1  0.50668000  0.91738000  0.47598000  1
  Fe  Fe27  1  0.00668000  0.08152000  0.48889000  1
  Fe  Fe28  1  0.00668000  0.24013000  0.47674000  1
  Fe  Fe29  1  0.50668000  0.40427000  0.48966000  1
  Fe  Fe30  1  0.50668000  0.21942000  0.52917000  1
  Fe  Fe31  1  0.00668000  0.38355000  0.54209000  1
  Fe  Fe32  1  0.00668000  0.56840000  0.50257000  1
  Fe  Fe33  1  0.50668000  0.73254000  0.51549000  1
  Fe  Fe34  1  0.50668000  0.54769000  0.55500000  1
  Fe  Fe35  1  0.00668000  0.71182000  0.56792000  1
  Fe  Fe36  1  0.00668000  0.89667000  0.52840000  1
  Fe  Fe37  1  0.50668000  0.06080000  0.54132000  1
  Fe  Fe38  1  0.50668000  0.87596000  0.58083000  1
  Fe  Fe39  1  0.00668000  0.04009000  0.59375000  1
  Fe  Fe40  1  0.00668000  0.19870000  0.58160000  1
  Fe  Fe41  1  0.50668000  0.36284000  0.59451000  1
  Fe  Fe42  1  0.50668000  0.17799000  0.63403000  1
  Fe  Fe43  1  0.00668000  0.34212000  0.64694000  1
  Fe  Fe44  1  0.00668000  0.52697000  0.60743000  1
  Fe  Fe45  1  0.50668000  0.69111000  0.62034000  1
  Fe  Fe46  1  0.50668000  0.50626000  0.65986000  1
  Fe  Fe47  1  0.00668000  0.67039000  0.67277000  1
  Fe  Fe48  1  0.00668000  0.85524000  0.63326000  1
  Fe  Fe49  1  0.50668000  0.01938000  0.64617000  1
  Fe  Fe50  1  0.50668000  0.83453000  0.68569000  1
  Fe  Fe51  1  0.00668000  0.99866000  0.69860000  1
  N  N52  1  0.50000000  0.87500000  0.76622000  1
  N  N53  1  0.50000000  0.62500000  0.76622000  1
  N  N54  1  0.00000000  0.00000000  0.84415000  1
  N  N55  1  0.00000000  0.75000000  0.84415000  1
  N  N56  1  0.50000000  0.87500000  0.92207000  1
  N  N57  1  0.50000000  0.62500000  0.92207000  1
  N  N58  1  0.00000000  0.00000000  0.00000000  1
  N  N59  1  0.00000000  0.75000000  0.00000000  1
  N  N60  1  0.50000000  0.37500000  0.76622000  1
  N  N61  1  0.50000000  0.12500000  0.76622000  1
  N  N62  1  0.00000000  0.50000000  0.84415000  1
  N  N63  1  0.00000000  0.25000000  0.84415000  1
  N  N64  1  0.50000000  0.37500000  0.92207000  1
  N  N65  1  0.50000000  0.12500000  0.92207000  1
  N  N66  1  0.00000000  0.50000000  0.00000000  1
  N  N67  1  0.00000000  0.25000000  0.00000000  1
