# generated using pymatgen
data_Cr4Fe9N4
_symmetry_space_group_name_H-M   'P 1'
_cell_length_a   3.50615000
_cell_length_b   12.00020000
_cell_length_c   26.88990000
_cell_angle_alpha   90.00000000
_cell_angle_beta   90.00000000
_cell_angle_gamma   90.00000000
_symmetry_Int_Tables_number   1
_chemical_formula_structural   Cr4Fe9N4
_chemical_formula_sum   'Cr16 Fe36 N16'
_cell_volume   1131.37913062
_cell_formula_units_Z   4
loop_
 _symmetry_equiv_pos_site_id
 _symmetry_equiv_pos_as_xyz
  1  'x, y, z'
loop_
 _atom_site_type_symbol
 _atom_site_label
 _atom_site_symmetry_multiplicity
 _atom_site_fract_x
 _atom_site_fract_y
 _atom_site_fract_z
 _atom_site_occupancy
  Cr  Cr1  1  0.00000000  0.00000000  0.76622000  1.0
  Cr  Cr2  1  0.00000000  0.75000000  0.76622000  1.0
  Cr  Cr3  1  0.50000000  0.87500000  0.84415000  1.0
  Cr  Cr4  1  0.50000000  0.62500000  0.84415000  1.0
  Cr  Cr17  1  0.00000000  0.00000000  0.92207000  1.0
  Cr  Cr18  1  0.00000000  0.75000000  0.92207000  1.0
  Cr  Cr19  1  0.50000000  0.87500000  0.00000000  1.0
  Cr  Cr20  1  0.50000000  0.62500000  0.00000000  1.0
  Cr  Cr33  1  0.00000000  0.50000000  0.76622000  1.0
  Cr  Cr34  1  0.00000000  0.25000000  0.76622000  1.0
  Cr  Cr35  1  0.50000000  0.37500000  0.84415000  1.0
  Cr  Cr36  1  0.50000000  0.12500000  0.84415000  1.0
  Cr  Cr49  1  0.00000000  0.50000000  0.92207000  1.0
  Cr  Cr50  1  0.00000000  0.25000000  0.92207000  1.0
  Cr  Cr51  1  0.50000000  0.37500000  0.00000000  1.0
  Cr  Cr52  1  0.50000000  0.12500000  0.00000000  1.0
  Fe  Fe65  1  0.00668000  0.28156000  0.37189000  1.0
  Fe  Fe66  1  0.50668000  0.44569000  0.38480000  1.0
  Fe  Fe67  1  0.50668000  0.26084000  0.42432000  1.0
  Fe  Fe68  1  0.00668000  0.42498000  0.43723000  1.0
  Fe  Fe69  1  0.00668000  0.60983000  0.39772000  1.0
  Fe  Fe70  1  0.50668000  0.77396000  0.41063000  1.0
  Fe  Fe71  1  0.50668000  0.58911000  0.45015000  1.0
  Fe  Fe72  1  0.00668000  0.75325000  0.46306000  1.0
  Fe  Fe73  1  0.00668000  0.93810000  0.42355000  1.0
  Fe  Fe74  1  0.50668000  0.10223000  0.43646000  1.0
  Fe  Fe75  1  0.50668000  0.91738000  0.47598000  1.0
  Fe  Fe76  1  0.00668000  0.08152000  0.48889000  1.0
  Fe  Fe77  1  0.00668000  0.24013000  0.47674000  1.0
  Fe  Fe78  1  0.50668000  0.40427000  0.48966000  1.0
  Fe  Fe79  1  0.50668000  0.21942000  0.52917000  1.0
  Fe  Fe80  1  0.00668000  0.38355000  0.54209000  1.0
  Fe  Fe81  1  0.00668000  0.56840000  0.50257000  1.0
  Fe  Fe82  1  0.50668000  0.73254000  0.51549000  1.0
  Fe  Fe83  1  0.50668000  0.54769000  0.55500000  1.0
  Fe  Fe84  1  0.00668000  0.71182000  0.56792000  1.0
  Fe  Fe85  1  0.00668000  0.89667000  0.52840000  1.0
  Fe  Fe86  1  0.50668000  0.06080000  0.54132000  1.0
  Fe  Fe87  1  0.50668000  0.87596000  0.58083000  1.0
  Fe  Fe88  1  0.00668000  0.04009000  0.59375000  1.0
  Fe  Fe89  1  0.00668000  0.19870000  0.58160000  1.0
  Fe  Fe90  1  0.50668000  0.36284000  0.59451000  1.0
  Fe  Fe91  1  0.50668000  0.17799000  0.63403000  1.0
  Fe  Fe92  1  0.00668000  0.34212000  0.64694000  1.0
  Fe  Fe93  1  0.00668000  0.52697000  0.60743000  1.0
  Fe  Fe94  1  0.50668000  0.69111000  0.62034000  1.0
  Fe  Fe95  1  0.50668000  0.50626000  0.65986000  1.0
  Fe  Fe96  1  0.00668000  0.67039000  0.67277000  1.0
  Fe  Fe97  1  0.00668000  0.85524000  0.63326000  1.0
  Fe  Fe98  1  0.50668000  0.01938000  0.64617000  1.0
  Fe  Fe99  1  0.50668000  0.83453000  0.68569000  1.0
  Fe  Fe100  1  0.00668000  0.99866000  0.69860000  1.0
  N  N9  1  0.50000000  0.87500000  0.76622000  1.0
  N  N10  1  0.50000000  0.62500000  0.76622000  1.0
  N  N11  1  0.00000000  0.00000000  0.84415000  1.0
  N  N12  1  0.00000000  0.75000000  0.84415000  1.0
  N  N25  1  0.50000000  0.87500000  0.92207000  1.0
  N  N26  1  0.50000000  0.62500000  0.92207000  1.0
  N  N27  1  0.00000000  0.00000000  0.00000000  1.0
  N  N28  1  0.00000000  0.75000000  0.00000000  1.0
  N  N41  1  0.50000000  0.37500000  0.76622000  1.0
  N  N42  1  0.50000000  0.12500000  0.76622000  1.0
  N  N43  1  0.00000000  0.50000000  0.84415000  1.0
  N  N44  1  0.00000000  0.25000000  0.84415000  1.0
  N  N57  1  0.50000000  0.37500000  0.92207000  1.0
  N  N58  1  0.50000000  0.12500000  0.92207000  1.0
  N  N59  1  0.00000000  0.50000000  0.00000000  1.0
  N  N60  1  0.00000000  0.25000000  0.00000000  1.0
