# generated using pymatgen
data_Cr4Fe9N4
_symmetry_space_group_name_H-M   'P 1'
_cell_length_a   3.30436208
_cell_length_b   11.30955771
_cell_length_c   25.34231729
_cell_angle_alpha   90.00000000
_cell_angle_beta   90.00000000
_cell_angle_gamma   90.00000000
_symmetry_Int_Tables_number   1
_chemical_formula_structural   Cr4Fe9N4
_chemical_formula_sum   'Cr16 Fe36 N16'
_cell_volume   947.06453646
_cell_formula_units_Z   4
loop_
 _symmetry_equiv_pos_site_id
 _symmetry_equiv_pos_as_xyz
  1  'x, y, z'
loop_
 _atom_site_type_symbol
 _atom_site_label
 _atom_site_symmetry_multiplicity
 _atom_site_fract_x
 _atom_site_fract_y
 _atom_site_fract_z
 _atom_site_occupancy
  Cr  Cr0  1  -0.01438771  0.01213732  0.77639709  1
  Cr  Cr1  1  -0.00264805  0.77076384  0.78213093  1
  Cr  Cr2  1  0.49687219  0.85901044  0.85015223  1
  Cr  Cr3  1  0.50077095  0.60765458  0.84302617  1
  Cr  Cr4  1  0.00000000  0.00000000  0.92207000  1
  Cr  Cr5  1  0.00000000  0.75000000  0.92207000  1
  Cr  Cr6  1  0.50000000  0.87500000  0.00000000  1
  Cr  Cr7  1  0.50000000  0.62500000  0.00000000  1
  Cr  Cr8  1  0.00504639  0.47993541  0.77576479  1
  Cr  Cr9  1  -0.00279824  0.23402231  0.76980645  1
  Cr  Cr10  1  0.50128146  0.38213223  0.84495356  1
  Cr  Cr11  1  0.49293795  0.13927358  0.84827446  1
  Cr  Cr12  1  0.00000000  0.50000000  0.92207000  1
  Cr  Cr13  1  0.00000000  0.25000000  0.92207000  1
  Cr  Cr14  1  0.50000000  0.37500000  0.00000000  1
  Cr  Cr15  1  0.50000000  0.12500000  0.00000000  1
  Fe  Fe16  1  0.00668000  0.28156000  0.37189000  1
  Fe  Fe17  1  0.50668000  0.44569000  0.38480000  1
  Fe  Fe18  1  0.50668000  0.26084000  0.42432000  1
  Fe  Fe19  1  0.00668000  0.42498000  0.43723000  1
  Fe  Fe20  1  0.00668000  0.60983000  0.39772000  1
  Fe  Fe21  1  0.50668000  0.77396000  0.41063000  1
  Fe  Fe22  1  0.50668000  0.58911000  0.45015000  1
  Fe  Fe23  1  0.00668000  0.75325000  0.46306000  1
  Fe  Fe24  1  0.00668000  0.93810000  0.42355000  1
  Fe  Fe25  1  0.50668000  0.10223000  0.43646000  1
  Fe  Fe26  1  0.50668000  0.91738000  0.47598000  1
  Fe  Fe27  1  0.00668000  0.08152000  0.48889000  1
  Fe  Fe28  1  0.00668000  0.24013000  0.47674000  1
  Fe  Fe29  1  0.50668000  0.40427000  0.48966000  1
  Fe  Fe30  1  0.50677911  0.23935508  0.55085313  1
  Fe  Fe31  1  0.00644717  0.38329817  0.55998771  1
  Fe  Fe32  1  0.00668000  0.56840000  0.50257000  1
  Fe  Fe33  1  0.50668000  0.73254000  0.51549000  1
  Fe  Fe34  1  0.50677767  0.53666504  0.57129424  1
  Fe  Fe35  1  0.00574565  0.69396581  0.58256509  1
  Fe  Fe36  1  0.00661411  0.88593344  0.54037688  1
  Fe  Fe37  1  0.50758896  0.03627353  0.55400701  1
  Fe  Fe38  1  0.50600609  0.83881425  0.59546790  1
  Fe  Fe39  1  0.00849999  0.04070225  0.60880328  1
  Fe  Fe40  1  0.00715473  0.21897508  0.61910912  1
  Fe  Fe41  1  0.50777592  0.34969089  0.62967977  1
  Fe  Fe42  1  0.50718112  0.17864506  0.68950001  1
  Fe  Fe43  1  0.00846738  0.34292262  0.69316900  1
  Fe  Fe44  1  0.00683827  0.51322196  0.63584486  1
  Fe  Fe45  1  0.50583511  0.66375259  0.64465776  1
  Fe  Fe46  1  0.50658733  0.49043677  0.70753268  1
  Fe  Fe47  1  0.00617718  0.64508258  0.71421556  1
  Fe  Fe48  1  0.00606088  0.82163190  0.65821914  1
  Fe  Fe49  1  0.50845398  -0.02891534  0.66024561  1
  Fe  Fe50  1  0.50414644  0.80964335  0.71522775  1
  Fe  Fe51  1  0.00836581  0.04912787  0.70389041  1
  N  N52  1  0.50913219  0.88067527  0.77712090  1
  N  N53  1  0.50282796  0.62562061  0.75929309  1
  N  N54  1  0.00817890  -0.00239146  0.85021734  1
  N  N55  1  0.00137100  0.73930332  0.84984256  1
  N  N56  1  0.50000000  0.87500000  0.92207000  1
  N  N57  1  0.50000000  0.62500000  0.92207000  1
  N  N58  1  0.00000000  0.00000000  0.00000000  1
  N  N59  1  0.00000000  0.75000000  0.00000000  1
  N  N60  1  0.49826712  0.37579461  0.76367001  1
  N  N61  1  0.49981562  0.13020374  0.76019307  1
  N  N62  1  -0.00042525  0.50049737  0.84763329  1
  N  N63  1  0.00201897  0.25481489  0.84536245  1
  N  N64  1  0.50000000  0.37500000  0.92207000  1
  N  N65  1  0.50000000  0.12500000  0.92207000  1
  N  N66  1  0.00000000  0.50000000  0.00000000  1
  N  N67  1  0.00000000  0.25000000  0.00000000  1
