data_Layer_first_Mo
_audit_creation_date              2024-04-15
_audit_creation_method            'Materials Studio'
_symmetry_space_group_name_H-M    'P1'
_symmetry_Int_Tables_number       1
_symmetry_cell_setting            triclinic
loop_
_symmetry_equiv_pos_as_xyz
  x,y,z
_cell_length_a                    12.0002
_cell_length_b                    3.5062
_cell_length_c                    28.9849
_cell_angle_alpha                 90.0000
_cell_angle_beta                  90.0000
_cell_angle_gamma                 90.0000
loop_
_atom_site_label
_atom_site_type_symbol
_atom_site_fract_x
_atom_site_fract_y
_atom_site_fract_z
_atom_site_U_iso_or_equiv
_atom_site_adp_type
_atom_site_occupancy
Mo1    Mo    0.00373   2.14821   0.40610   0.00000  Uiso   1.00
Cr2    Cr    0.37873   0.64821   0.32817   0.00000  Uiso   1.00
Cr3    Cr    0.12873   0.64821   0.32817   0.00000  Uiso   1.00
Mo4    Mo    0.25373   2.14821   0.40610   0.00000  Uiso   1.00
N5     N     0.37873   0.64821   0.40610   0.00000  Uiso   1.00
N6     N     0.00373   2.14821   0.32817   0.00000  Uiso   1.00
N7     N     0.25373   2.14821   0.32817   0.00000  Uiso   1.00
N8     N     0.12873   0.64821   0.40610   0.00000  Uiso   1.00
Cr9    Cr    0.00373   2.14821   0.25025   0.00000  Uiso   1.00
Cr10   Cr    0.37873   0.64821   0.17232   0.00000  Uiso   1.00
Cr11   Cr    0.12873   0.64821   0.17232   0.00000  Uiso   1.00
Cr12   Cr    0.25373   2.14821   0.25025   0.00000  Uiso   1.00
N13    N     0.37873   0.64821   0.25025   0.00000  Uiso   1.00
N14    N     0.00373   2.14821   0.17232   0.00000  Uiso   1.00
N15    N     0.25373   2.14821   0.17232   0.00000  Uiso   1.00
N16    N     0.12873   0.64821   0.25025   0.00000  Uiso   1.00
Mo17   Mo    0.50373   2.14821   0.40610   0.00000  Uiso   1.00
Cr18   Cr    0.87873   0.64821   0.32817   0.00000  Uiso   1.00
Cr19   Cr    0.62873   0.64821   0.32817   0.00000  Uiso   1.00
Mo20   Mo    0.75373   2.14821   0.40610   0.00000  Uiso   1.00
N21    N     0.87873   0.64821   0.40610   0.00000  Uiso   1.00
N22    N     0.50373   2.14821   0.32817   0.00000  Uiso   1.00
N23    N     0.75373   2.14821   0.32817   0.00000  Uiso   1.00
N24    N     0.62873   0.64821   0.40610   0.00000  Uiso   1.00
Cr25   Cr    0.50373   2.14821   0.25025   0.00000  Uiso   1.00
Cr26   Cr    0.87873   0.64821   0.17232   0.00000  Uiso   1.00
Cr27   Cr    0.62873   0.64821   0.17232   0.00000  Uiso   1.00
Cr28   Cr    0.75373   2.14821   0.25025   0.00000  Uiso   1.00
N29    N     0.87873   0.64821   0.25025   0.00000  Uiso   1.00
N30    N     0.50373   2.14821   0.17232   0.00000  Uiso   1.00
N31    N     0.75373   2.14821   0.17232   0.00000  Uiso   1.00
N32    N     0.62873   0.64821   0.25025   0.00000  Uiso   1.00
Fe33   Fe    0.72217   0.14153   0.80043   0.00000  Uiso   1.00
Fe34   Fe    0.55804   0.64153   0.78752   0.00000  Uiso   1.00
Fe35   Fe    0.74289   0.64153   0.74800   0.00000  Uiso   1.00
Fe36   Fe    0.57875   0.14153   0.73509   0.00000  Uiso   1.00
Fe37   Fe    0.39390   0.14153   0.77460   0.00000  Uiso   1.00
Fe38   Fe    0.22977   0.64153   0.76169   0.00000  Uiso   1.00
Fe39   Fe    0.41462   0.64153   0.72217   0.00000  Uiso   1.00
Fe40   Fe    0.25048   0.14153   0.70926   0.00000  Uiso   1.00
Fe41   Fe    0.06563   0.14153   0.74877   0.00000  Uiso   1.00
Fe42   Fe   -0.09850   0.64153   0.73586   0.00000  Uiso   1.00
Fe43   Fe    0.08635   0.64153   0.69634   0.00000  Uiso   1.00
Fe44   Fe   -0.07779   0.14153   0.68343   0.00000  Uiso   1.00
Fe45   Fe    0.76360   0.14153   0.69558   0.00000  Uiso   1.00
Fe46   Fe    0.59947   0.64153   0.68266   0.00000  Uiso   1.00
Fe47   Fe    0.78431   0.64153   0.64315   0.00000  Uiso   1.00
Fe48   Fe    0.62018   0.14153   0.63023   0.00000  Uiso   1.00
Fe49   Fe    0.43533   0.14153   0.66975   0.00000  Uiso   1.00
Fe50   Fe    0.27120   0.64153   0.65683   0.00000  Uiso   1.00
Fe51   Fe    0.45605   0.64153   0.61732   0.00000  Uiso   1.00
Fe52   Fe    0.29191   0.14153   0.60440   0.00000  Uiso   1.00
Fe53   Fe    0.10706   0.14153   0.64392   0.00000  Uiso   1.00
Fe54   Fe   -0.05707   0.64153   0.63100   0.00000  Uiso   1.00
Fe55   Fe    0.12778   0.64153   0.59149   0.00000  Uiso   1.00
Fe56   Fe   -0.03636   0.14153   0.57857   0.00000  Uiso   1.00
Fe57   Fe    0.80503   0.14153   0.59072   0.00000  Uiso   1.00
Fe58   Fe    0.64089   0.64153   0.57781   0.00000  Uiso   1.00
Fe59   Fe    0.82574   0.64153   0.53829   0.00000  Uiso   1.00
Fe60   Fe    0.66161   0.14153   0.52538   0.00000  Uiso   1.00
Fe61   Fe    0.47676   0.14153   0.56489   0.00000  Uiso   1.00
Fe62   Fe    0.31262   0.64153   0.55198   0.00000  Uiso   1.00
Fe63   Fe    0.49747   0.64153   0.51246   0.00000  Uiso   1.00
Fe64   Fe    0.33334   0.14153   0.49955   0.00000  Uiso   1.00
Fe65   Fe    0.14849   0.14153   0.53906   0.00000  Uiso   1.00
Fe66   Fe   -0.01565   0.64153   0.52615   0.00000  Uiso   1.00
Fe67   Fe    0.16920   0.64153   0.48663   0.00000  Uiso   1.00
Fe68   Fe    0.00507   0.14153   0.47372   0.00000  Uiso   1.00
Cr69   Cr    0.00538   2.13174   0.09451   0.00000  Uiso   1.00
Cr70   Cr    0.38038   0.63174   0.01658   0.00000  Uiso   1.00
Cr71   Cr    0.13038   0.63174   0.01658   0.00000  Uiso   1.00
Cr72   Cr    0.25538   2.13174   0.09451   0.00000  Uiso   1.00
N73    N     0.38038   0.63174   0.09451   0.00000  Uiso   1.00
N74    N     0.00538   2.13174   0.01658   0.00000  Uiso   1.00
N75    N     0.25538   2.13174   0.01658   0.00000  Uiso   1.00
N76    N     0.13038   0.63174   0.09451   0.00000  Uiso   1.00
Cr77   Cr    0.50538   2.13174   0.09451   0.00000  Uiso   1.00
Cr78   Cr    0.88038   0.63174   0.01658   0.00000  Uiso   1.00
Cr79   Cr    0.63038   0.63174   0.01658   0.00000  Uiso   1.00
Cr80   Cr    0.75538   2.13174   0.09451   0.00000  Uiso   1.00
N81    N     0.88038   0.63174   0.09451   0.00000  Uiso   1.00
N82    N     0.50538   2.13174   0.01658   0.00000  Uiso   1.00
N83    N     0.75538   2.13174   0.01658   0.00000  Uiso   1.00
N84    N     0.63038   0.63174   0.09451   0.00000  Uiso   1.00
