# generated using pymatgen
data_Cr2Fe3N2
_symmetry_space_group_name_H-M   'P 1'
_cell_length_a   3.50620000
_cell_length_b   12.00020000
_cell_length_c   28.98490000
_cell_angle_alpha   90.00000000
_cell_angle_beta   90.00000000
_cell_angle_gamma   90.00000000
_symmetry_Int_Tables_number   1
_chemical_formula_structural   Cr2Fe3N2
_chemical_formula_sum   'Cr24 Fe36 N24'
_cell_volume   1219.54260193
_cell_formula_units_Z   12
loop_
 _symmetry_equiv_pos_site_id
 _symmetry_equiv_pos_as_xyz
  1  'x, y, z'
loop_
 _atom_site_type_symbol
 _atom_site_label
 _atom_site_symmetry_multiplicity
 _atom_site_fract_x
 _atom_site_fract_y
 _atom_site_fract_z
 _atom_site_occupancy
  Cr  Cr1  1  0.14405000  0.00172000  0.40609000  1.0
  Cr  Cr2  1  0.64405000  0.37672000  0.32816000  1.0
  Cr  Cr3  1  0.64405000  0.12672000  0.32816000  1.0
  Cr  Cr4  1  0.14405000  0.25172000  0.40609000  1.0
  Cr  Cr9  1  0.14405000  0.00172000  0.25023000  1.0
  Cr  Cr10  1  0.64405000  0.37672000  0.17231000  1.0
  Cr  Cr11  1  0.64405000  0.12672000  0.17231000  1.0
  Cr  Cr12  1  0.14405000  0.25172000  0.25023000  1.0
  Cr  Cr17  1  0.14405000  0.50172000  0.40609000  1.0
  Cr  Cr18  1  0.64405000  0.87672000  0.32816000  1.0
  Cr  Cr19  1  0.64405000  0.62672000  0.32816000  1.0
  Cr  Cr20  1  0.14405000  0.75172000  0.40609000  1.0
  Cr  Cr25  1  0.14405000  0.50172000  0.25023000  1.0
  Cr  Cr26  1  0.64405000  0.87672000  0.17231000  1.0
  Cr  Cr27  1  0.64405000  0.62672000  0.17231000  1.0
  Cr  Cr28  1  0.14405000  0.75172000  0.25023000  1.0
  Cr  Cr69  1  0.12759000  0.00337000  0.09450000  1.0
  Cr  Cr70  1  0.62759000  0.37837000  0.01657000  1.0
  Cr  Cr71  1  0.62759000  0.12837000  0.01657000  1.0
  Cr  Cr72  1  0.12759000  0.25337000  0.09450000  1.0
  Cr  Cr77  1  0.12759000  0.50337000  0.09450000  1.0
  Cr  Cr78  1  0.62759000  0.87837000  0.01657000  1.0
  Cr  Cr79  1  0.62759000  0.62837000  0.01657000  1.0
  Cr  Cr80  1  0.12759000  0.75337000  0.09450000  1.0
  Fe  Fe33  1  0.13738000  0.72017000  0.80042000  1.0
  Fe  Fe34  1  0.63738000  0.55603000  0.78750000  1.0
  Fe  Fe35  1  0.63738000  0.74088000  0.74799000  1.0
  Fe  Fe36  1  0.13738000  0.57674000  0.73508000  1.0
  Fe  Fe37  1  0.13738000  0.39190000  0.77459000  1.0
  Fe  Fe38  1  0.63738000  0.22776000  0.76167000  1.0
  Fe  Fe39  1  0.63738000  0.41261000  0.72216000  1.0
  Fe  Fe40  1  0.13738000  0.24848000  0.70925000  1.0
  Fe  Fe41  1  0.13738000  0.06363000  0.74876000  1.0
  Fe  Fe42  1  0.63738000  0.89949000  0.73584000  1.0
  Fe  Fe43  1  0.63738000  0.08434000  0.69633000  1.0
  Fe  Fe44  1  0.13738000  0.92021000  0.68342000  1.0
  Fe  Fe45  1  0.13738000  0.76159000  0.69556000  1.0
  Fe  Fe46  1  0.63738000  0.59746000  0.68265000  1.0
  Fe  Fe47  1  0.63738000  0.78231000  0.64314000  1.0
  Fe  Fe48  1  0.13738000  0.61817000  0.63022000  1.0
  Fe  Fe49  1  0.13738000  0.43332000  0.66973000  1.0
  Fe  Fe50  1  0.63738000  0.26919000  0.65682000  1.0
  Fe  Fe51  1  0.63738000  0.45404000  0.61731000  1.0
  Fe  Fe52  1  0.13738000  0.28990000  0.60439000  1.0
  Fe  Fe53  1  0.13738000  0.10505000  0.64390000  1.0
  Fe  Fe54  1  0.63738000  0.94092000  0.63099000  1.0
  Fe  Fe55  1  0.63738000  0.12577000  0.59148000  1.0
  Fe  Fe56  1  0.13738000  0.96163000  0.57856000  1.0
  Fe  Fe57  1  0.13738000  0.80302000  0.59071000  1.0
  Fe  Fe58  1  0.63738000  0.63889000  0.57779000  1.0
  Fe  Fe59  1  0.63738000  0.82374000  0.53828000  1.0
  Fe  Fe60  1  0.13738000  0.65960000  0.52537000  1.0
  Fe  Fe61  1  0.13738000  0.47475000  0.56488000  1.0
  Fe  Fe62  1  0.63738000  0.31062000  0.55196000  1.0
  Fe  Fe63  1  0.63738000  0.49547000  0.51245000  1.0
  Fe  Fe64  1  0.13738000  0.33133000  0.49954000  1.0
  Fe  Fe65  1  0.13738000  0.14648000  0.53905000  1.0
  Fe  Fe66  1  0.63738000  0.98235000  0.52613000  1.0
  Fe  Fe67  1  0.63738000  0.16720000  0.48662000  1.0
  Fe  Fe68  1  0.13738000  0.00306000  0.47371000  1.0
  N  N5  1  0.64405000  0.37672000  0.40609000  1.0
  N  N6  1  0.14405000  0.00172000  0.32816000  1.0
  N  N7  1  0.14405000  0.25172000  0.32816000  1.0
  N  N8  1  0.64405000  0.12672000  0.40609000  1.0
  N  N13  1  0.64405000  0.37672000  0.25023000  1.0
  N  N14  1  0.14405000  0.00172000  0.17231000  1.0
  N  N15  1  0.14405000  0.25172000  0.17231000  1.0
  N  N16  1  0.64405000  0.12672000  0.25023000  1.0
  N  N21  1  0.64405000  0.87672000  0.40609000  1.0
  N  N22  1  0.14405000  0.50172000  0.32816000  1.0
  N  N23  1  0.14405000  0.75172000  0.32816000  1.0
  N  N24  1  0.64405000  0.62672000  0.40609000  1.0
  N  N29  1  0.64405000  0.87672000  0.25023000  1.0
  N  N30  1  0.14405000  0.50172000  0.17231000  1.0
  N  N31  1  0.14405000  0.75172000  0.17231000  1.0
  N  N32  1  0.64405000  0.62672000  0.25023000  1.0
  N  N73  1  0.62759000  0.37837000  0.09450000  1.0
  N  N74  1  0.12759000  0.00337000  0.01657000  1.0
  N  N75  1  0.12759000  0.25337000  0.01657000  1.0
  N  N76  1  0.62759000  0.12837000  0.09450000  1.0
  N  N81  1  0.62759000  0.87837000  0.09450000  1.0
  N  N82  1  0.12759000  0.50337000  0.01657000  1.0
  N  N83  1  0.12759000  0.75337000  0.01657000  1.0
  N  N84  1  0.62759000  0.62837000  0.09450000  1.0
