# generated using pymatgen
data_Cr5Fe9MoN6
_symmetry_space_group_name_H-M   'P 1'
_cell_length_a   3.50620000
_cell_length_b   12.00020000
_cell_length_c   28.98490000
_cell_angle_alpha   90.00000000
_cell_angle_beta   90.00000000
_cell_angle_gamma   90.00000000
_symmetry_Int_Tables_number   1
_chemical_formula_structural   Cr5Fe9MoN6
_chemical_formula_sum   'Cr20 Fe36 Mo4 N24'
_cell_volume   1219.54260193
_cell_formula_units_Z   4
loop_
 _symmetry_equiv_pos_site_id
 _symmetry_equiv_pos_as_xyz
  1  'x, y, z'
loop_
 _atom_site_type_symbol
 _atom_site_label
 _atom_site_symmetry_multiplicity
 _atom_site_fract_x
 _atom_site_fract_y
 _atom_site_fract_z
 _atom_site_occupancy
  Cr  Cr2  1  0.64821000  0.37873000  0.32817000  1.0
  Cr  Cr3  1  0.64821000  0.12873000  0.32817000  1.0
  Cr  Cr9  1  0.14821000  0.00373000  0.25025000  1.0
  Cr  Cr10  1  0.64821000  0.37873000  0.17232000  1.0
  Cr  Cr11  1  0.64821000  0.12873000  0.17232000  1.0
  Cr  Cr12  1  0.14821000  0.25373000  0.25025000  1.0
  Cr  Cr18  1  0.64821000  0.87873000  0.32817000  1.0
  Cr  Cr19  1  0.64821000  0.62873000  0.32817000  1.0
  Cr  Cr25  1  0.14821000  0.50373000  0.25025000  1.0
  Cr  Cr26  1  0.64821000  0.87873000  0.17232000  1.0
  Cr  Cr27  1  0.64821000  0.62873000  0.17232000  1.0
  Cr  Cr28  1  0.14821000  0.75373000  0.25025000  1.0
  Cr  Cr69  1  0.13174000  0.00538000  0.09451000  1.0
  Cr  Cr70  1  0.63174000  0.38038000  0.01658000  1.0
  Cr  Cr71  1  0.63174000  0.13038000  0.01658000  1.0
  Cr  Cr72  1  0.13174000  0.25538000  0.09451000  1.0
  Cr  Cr77  1  0.13174000  0.50538000  0.09451000  1.0
  Cr  Cr78  1  0.63174000  0.88038000  0.01658000  1.0
  Cr  Cr79  1  0.63174000  0.63038000  0.01658000  1.0
  Cr  Cr80  1  0.13174000  0.75538000  0.09451000  1.0
  Fe  Fe33  1  0.14153000  0.72217000  0.80043000  1.0
  Fe  Fe34  1  0.64153000  0.55804000  0.78752000  1.0
  Fe  Fe35  1  0.64153000  0.74289000  0.74800000  1.0
  Fe  Fe36  1  0.14153000  0.57875000  0.73509000  1.0
  Fe  Fe37  1  0.14153000  0.39390000  0.77460000  1.0
  Fe  Fe38  1  0.64153000  0.22977000  0.76169000  1.0
  Fe  Fe39  1  0.64153000  0.41462000  0.72217000  1.0
  Fe  Fe40  1  0.14153000  0.25048000  0.70926000  1.0
  Fe  Fe41  1  0.14153000  0.06563000  0.74877000  1.0
  Fe  Fe42  1  0.64153000  0.90150000  0.73586000  1.0
  Fe  Fe43  1  0.64153000  0.08635000  0.69634000  1.0
  Fe  Fe44  1  0.14153000  0.92221000  0.68343000  1.0
  Fe  Fe45  1  0.14153000  0.76360000  0.69558000  1.0
  Fe  Fe46  1  0.64153000  0.59947000  0.68266000  1.0
  Fe  Fe47  1  0.64153000  0.78431000  0.64315000  1.0
  Fe  Fe48  1  0.14153000  0.62018000  0.63023000  1.0
  Fe  Fe49  1  0.14153000  0.43533000  0.66975000  1.0
  Fe  Fe50  1  0.64153000  0.27120000  0.65683000  1.0
  Fe  Fe51  1  0.64153000  0.45605000  0.61732000  1.0
  Fe  Fe52  1  0.14153000  0.29191000  0.60440000  1.0
  Fe  Fe53  1  0.14153000  0.10706000  0.64392000  1.0
  Fe  Fe54  1  0.64153000  0.94293000  0.63100000  1.0
  Fe  Fe55  1  0.64153000  0.12778000  0.59149000  1.0
  Fe  Fe56  1  0.14153000  0.96364000  0.57857000  1.0
  Fe  Fe57  1  0.14153000  0.80503000  0.59072000  1.0
  Fe  Fe58  1  0.64153000  0.64089000  0.57781000  1.0
  Fe  Fe59  1  0.64153000  0.82574000  0.53829000  1.0
  Fe  Fe60  1  0.14153000  0.66161000  0.52538000  1.0
  Fe  Fe61  1  0.14153000  0.47676000  0.56489000  1.0
  Fe  Fe62  1  0.64153000  0.31262000  0.55198000  1.0
  Fe  Fe63  1  0.64153000  0.49747000  0.51246000  1.0
  Fe  Fe64  1  0.14153000  0.33333333  0.49955000  1.0
  Fe  Fe65  1  0.14153000  0.14849000  0.53906000  1.0
  Fe  Fe66  1  0.64153000  0.98435000  0.52615000  1.0
  Fe  Fe67  1  0.64153000  0.16920000  0.48663000  1.0
  Fe  Fe68  1  0.14153000  0.00507000  0.47372000  1.0
  Mo  Mo1  1  0.14821000  0.00373000  0.40610000  1.0
  Mo  Mo4  1  0.14821000  0.25373000  0.40610000  1.0
  Mo  Mo17  1  0.14821000  0.50373000  0.40610000  1.0
  Mo  Mo20  1  0.14821000  0.75373000  0.40610000  1.0
  N  N5  1  0.64821000  0.37873000  0.40610000  1.0
  N  N6  1  0.14821000  0.00373000  0.32817000  1.0
  N  N7  1  0.14821000  0.25373000  0.32817000  1.0
  N  N8  1  0.64821000  0.12873000  0.40610000  1.0
  N  N13  1  0.64821000  0.37873000  0.25025000  1.0
  N  N14  1  0.14821000  0.00373000  0.17232000  1.0
  N  N15  1  0.14821000  0.25373000  0.17232000  1.0
  N  N16  1  0.64821000  0.12873000  0.25025000  1.0
  N  N21  1  0.64821000  0.87873000  0.40610000  1.0
  N  N22  1  0.14821000  0.50373000  0.32817000  1.0
  N  N23  1  0.14821000  0.75373000  0.32817000  1.0
  N  N24  1  0.64821000  0.62873000  0.40610000  1.0
  N  N29  1  0.64821000  0.87873000  0.25025000  1.0
  N  N30  1  0.14821000  0.50373000  0.17232000  1.0
  N  N31  1  0.14821000  0.75373000  0.17232000  1.0
  N  N32  1  0.64821000  0.62873000  0.25025000  1.0
  N  N73  1  0.63174000  0.38038000  0.09451000  1.0
  N  N74  1  0.13174000  0.00538000  0.01658000  1.0
  N  N75  1  0.13174000  0.25538000  0.01658000  1.0
  N  N76  1  0.63174000  0.13038000  0.09451000  1.0
  N  N81  1  0.63174000  0.88038000  0.09451000  1.0
  N  N82  1  0.13174000  0.50538000  0.01658000  1.0
  N  N83  1  0.13174000  0.75538000  0.01658000  1.0
  N  N84  1  0.63174000  0.63038000  0.09451000  1.0
