# generated using pymatgen
data_Cr9Fe13N9
_symmetry_space_group_name_H-M   'P 1'
_cell_length_a   2.96300000
_cell_length_b   15.39900000
_cell_length_c   50.00000000
_cell_angle_alpha   90.00000000
_cell_angle_beta   90.00000000
_cell_angle_gamma   90.00000000
_symmetry_Int_Tables_number   1
_chemical_formula_structural   Cr9Fe13N9
_chemical_formula_sum   'Cr36 Fe52 N36'
_cell_volume   2281.36185000
_cell_formula_units_Z   4
loop_
 _symmetry_equiv_pos_site_id
 _symmetry_equiv_pos_as_xyz
  1  'x, y, z'
loop_
 _atom_site_type_symbol
 _atom_site_label
 _atom_site_symmetry_multiplicity
 _atom_site_fract_x
 _atom_site_fract_y
 _atom_site_fract_z
 _atom_site_occupancy
  Cr  Cr1  1  0.31798000  0.85417000  0.17713000  1.0
  Cr  Cr3  1  0.31714000  0.96366000  0.22587000  1.0
  Cr  Cr4  1  0.82443000  0.79784000  0.22551000  1.0
  Cr  Cr6  1  0.33102000  0.73987000  0.27356000  1.0
  Cr  Cr8  1  0.82358000  0.90733000  0.27425000  1.0
  Cr  Cr11  1  0.33275000  0.52085000  0.17713000  1.0
  Cr  Cr13  1  0.33191000  0.63034000  0.22587000  1.0
  Cr  Cr14  1  0.82527000  0.68835000  0.17678000  1.0
  Cr  Cr15  1  0.83919000  0.46452000  0.22551000  1.0
  Cr  Cr18  1  0.34579000  0.40655000  0.27356000  1.0
  Cr  Cr20  1  0.83835000  0.57401000  0.27425000  1.0
  Cr  Cr23  1  0.34752000  0.18753000  0.17713000  1.0
  Cr  Cr25  1  0.34668000  0.29702000  0.22587000  1.0
  Cr  Cr26  1  0.84004000  0.35503000  0.17677000  1.0
  Cr  Cr27  1  0.85396000  0.13119000  0.22551000  1.0
  Cr  Cr30  1  0.36056000  0.07322000  0.27356000  1.0
  Cr  Cr32  1  0.85312000  0.24068000  0.27425000  1.0
  Cr  Cr35  1  0.31905000  0.85418000  0.03195000  1.0
  Cr  Cr37  1  0.31820000  0.96367000  0.08069000  1.0
  Cr  Cr38  1  0.82549000  0.79784000  0.08033000  1.0
  Cr  Cr40  1  0.33209000  0.73987000  0.12838000  1.0
  Cr  Cr42  1  0.82465000  0.90733000  0.12907000  1.0
  Cr  Cr45  1  0.33382000  0.52086000  0.03195000  1.0
  Cr  Cr47  1  0.33297000  0.63035000  0.08069000  1.0
  Cr  Cr48  1  0.82634000  0.68835000  0.03160000  1.0
  Cr  Cr49  1  0.84026000  0.46452000  0.08033000  1.0
  Cr  Cr52  1  0.34686000  0.40655000  0.12838000  1.0
  Cr  Cr54  1  0.83941000  0.57401000  0.12907000  1.0
  Cr  Cr57  1  0.34859000  0.18754000  0.03195000  1.0
  Cr  Cr59  1  0.34774000  0.29703000  0.08069000  1.0
  Cr  Cr60  1  0.84110000  0.35503000  0.03159000  1.0
  Cr  Cr61  1  0.85503000  0.13120000  0.08033000  1.0
  Cr  Cr64  1  0.36162000  0.07323000  0.12838000  1.0
  Cr  Cr66  1  0.85418000  0.24069000  0.12907000  1.0
  Cr  Cr69  1  0.84004000  0.02336000  0.17677000  1.0
  Cr  Cr71  1  0.84110000  0.02337000  0.03159000  1.0
  Fe  Fe73  1  0.35304000  0.04516000  0.36623000  1.0
  Fe  Fe74  1  0.34788000  0.15873000  0.41313000  1.0
  Fe  Fe75  1  0.34679000  0.11011000  0.49288000  1.0
  Fe  Fe76  1  0.34271000  0.27230000  0.46004000  1.0
  Fe  Fe77  1  0.34572000  0.06148000  0.57263000  1.0
  Fe  Fe78  1  0.34163000  0.22367000  0.53979000  1.0
  Fe  Fe79  1  0.33755000  0.38587000  0.50694000  1.0
  Fe  Fe80  1  0.34895000  0.20736000  0.33338000  1.0
  Fe  Fe81  1  0.34378000  0.32094000  0.38029000  1.0
  Fe  Fe82  1  0.33969000  0.48313000  0.34745000  1.0
  Fe  Fe83  1  0.33862000  0.43450000  0.42719000  1.0
  Fe  Fe84  1  0.33453000  0.59670000  0.39435000  1.0
  Fe  Fe85  1  0.33043000  0.75889000  0.36151000  1.0
  Fe  Fe86  1  0.33345000  0.54806000  0.47410000  1.0
  Fe  Fe87  1  0.32936000  0.71026000  0.44126000  1.0
  Fe  Fe88  1  0.32527000  0.87247000  0.40841000  1.0
  Fe  Fe89  1  0.34056000  0.17504000  0.61953000  1.0
  Fe  Fe90  1  0.33646000  0.33724000  0.58669000  1.0
  Fe  Fe91  1  0.33238000  0.49943000  0.55385000  1.0
  Fe  Fe92  1  0.32722000  0.61301000  0.60075000  1.0
  Fe  Fe93  1  0.32829000  0.66164000  0.52100000  1.0
  Fe  Fe94  1  0.32420000  0.82384000  0.48816000  1.0
  Fe  Fe95  1  0.32010000  0.98603000  0.45532000  1.0
  Fe  Fe96  1  0.32312000  0.77520000  0.56791000  1.0
  Fe  Fe97  1  0.31903000  0.93740000  0.53507000  1.0
  Fe  Fe98  1  0.31796000  0.88877000  0.61481000  1.0
  Fe  Fe99  1  0.83045000  0.13509000  0.45306000  1.0
  Fe  Fe100  1  0.82938000  0.08646000  0.53281000  1.0
  Fe  Fe101  1  0.82529000  0.24865000  0.49997000  1.0
  Fe  Fe102  1  0.83669000  0.07015000  0.32641000  1.0
  Fe  Fe103  1  0.83153000  0.18372000  0.37331000  1.0
  Fe  Fe104  1  0.82743000  0.34592000  0.34047000  1.0
  Fe  Fe105  1  0.82636000  0.29728000  0.42022000  1.0
  Fe  Fe106  1  0.82227000  0.45948000  0.38738000  1.0
  Fe  Fe107  1  0.81819000  0.62168000  0.35453000  1.0
  Fe  Fe108  1  0.82120000  0.41085000  0.46712000  1.0
  Fe  Fe109  1  0.81710000  0.57305000  0.43428000  1.0
  Fe  Fe110  1  0.81302000  0.73525000  0.40144000  1.0
  Fe  Fe111  1  0.80893000  0.89745000  0.36859000  1.0
  Fe  Fe112  1  0.82831000  0.03783000  0.61256000  1.0
  Fe  Fe113  1  0.82422000  0.20002000  0.57972000  1.0
  Fe  Fe114  1  0.82012000  0.36223000  0.54687000  1.0
  Fe  Fe115  1  0.81496000  0.47579000  0.59378000  1.0
  Fe  Fe116  1  0.81603000  0.52442000  0.51403000  1.0
  Fe  Fe117  1  0.81194000  0.68662000  0.48119000  1.0
  Fe  Fe118  1  0.80786000  0.84882000  0.44834000  1.0
  Fe  Fe119  1  0.80376000  0.01101000  0.41550000  1.0
  Fe  Fe120  1  0.81087000  0.63799000  0.56093000  1.0
  Fe  Fe121  1  0.80677000  0.80019000  0.52809000  1.0
  Fe  Fe122  1  0.80269000  0.96238000  0.49525000  1.0
  Fe  Fe123  1  0.80570000  0.75155000  0.60784000  1.0
  Fe  Fe124  1  0.80161000  0.91376000  0.57500000  1.0
  N  N2  1  0.81748000  0.90973000  0.20167000  1.0
  N  N5  1  0.32492000  0.74227000  0.20097000  1.0
  N  N7  1  0.32408000  0.85176000  0.24971000  1.0
  N  N9  1  0.83159000  0.79543000  0.15292000  1.0
  N  N10  1  0.32430000  0.96126000  0.15327000  1.0
  N  N12  1  0.83225000  0.57641000  0.20167000  1.0
  N  N16  1  0.83137000  0.68594000  0.24936000  1.0
  N  N17  1  0.33969000  0.40895000  0.20097000  1.0
  N  N19  1  0.33885000  0.51844000  0.24971000  1.0
  N  N21  1  0.84636000  0.46211000  0.15292000  1.0
  N  N22  1  0.33907000  0.62794000  0.15327000  1.0
  N  N24  1  0.84702000  0.24309000  0.20167000  1.0
  N  N28  1  0.84614000  0.35262000  0.24936000  1.0
  N  N29  1  0.35446000  0.07563000  0.20097000  1.0
  N  N31  1  0.35362000  0.18512000  0.24971000  1.0
  N  N33  1  0.86113000  0.12879000  0.15292000  1.0
  N  N34  1  0.35384000  0.29462000  0.15327000  1.0
  N  N36  1  0.81855000  0.90974000  0.05649000  1.0
  N  N39  1  0.32599000  0.74228000  0.05579000  1.0
  N  N41  1  0.32514000  0.85177000  0.10453000  1.0
  N  N43  1  0.83265000  0.79544000  0.00774000  1.0
  N  N44  1  0.32536000  0.96127000  0.00809000  1.0
  N  N46  1  0.83332000  0.57642000  0.05649000  1.0
  N  N50  1  0.83243000  0.68594000  0.10418000  1.0
  N  N51  1  0.34076000  0.40896000  0.05579000  1.0
  N  N53  1  0.33991000  0.51845000  0.10453000  1.0
  N  N55  1  0.84742000  0.46212000  0.00774000  1.0
  N  N56  1  0.34013000  0.62794000  0.00809000  1.0
  N  N58  1  0.84809000  0.24310000  0.05649000  1.0
  N  N62  1  0.84720000  0.35262000  0.10418000  1.0
  N  N63  1  0.35553000  0.07564000  0.05579000  1.0
  N  N65  1  0.35468000  0.18513000  0.10453000  1.0
  N  N67  1  0.86219000  0.12880000  0.00774000  1.0
  N  N68  1  0.35490000  0.29462000  0.00809000  1.0
  N  N70  1  0.84614000  0.02096000  0.24936000  1.0
  N  N72  1  0.84720000  0.02096000  0.10418000  1.0
