data_Structure_1-Cr_Fe2W
_audit_creation_date              2024-04-26
_audit_creation_method            'Materials Studio'
_symmetry_space_group_name_H-M    'P1'
_symmetry_Int_Tables_number       1
_symmetry_cell_setting            triclinic
loop_
_symmetry_equiv_pos_as_xyz
  x,y,z
_cell_length_a                    15.3990
_cell_length_b                    2.9630
_cell_length_c                    50.0000
_cell_angle_alpha                 90.0000
_cell_angle_beta                  90.0000
_cell_angle_gamma                 90.0000
loop_
_atom_site_label
_atom_site_type_symbol
_atom_site_fract_x
_atom_site_fract_y
_atom_site_fract_z
_atom_site_U_iso_or_equiv
_atom_site_adp_type
_atom_site_occupancy
Cr1    Cr    0.85417   0.31798   0.17713   0.00000  Uiso   1.00
N2     N     0.90973   0.81748   0.20167   0.00000  Uiso   1.00
Cr3    Cr    0.96366   0.31714   0.22587   0.00000  Uiso   1.00
Cr4    Cr    0.79784   0.82443   0.22551   0.00000  Uiso   1.00
N5     N     0.74227   0.32492   0.20097   0.00000  Uiso   1.00
W6     W     0.73987   0.33102   0.27356   0.00000  Uiso   1.00
N7     N     0.85176   0.32408   0.24971   0.00000  Uiso   1.00
W8     W     0.90733   0.82358   0.27425   0.00000  Uiso   1.00
N9     N     0.79543   0.83159   0.15292   0.00000  Uiso   1.00
N10    N     0.96126   0.32430   0.15327   0.00000  Uiso   1.00
Cr11   Cr    0.52085   0.33275   0.17713   0.00000  Uiso   1.00
N12    N     0.57641   0.83225   0.20167   0.00000  Uiso   1.00
Cr13   Cr    0.63034   0.33191   0.22587   0.00000  Uiso   1.00
Cr14   Cr    0.68835   0.82527   0.17678   0.00000  Uiso   1.00
Cr15   Cr    0.46452   0.83919   0.22551   0.00000  Uiso   1.00
N16    N     0.68594   0.83137   0.24936   0.00000  Uiso   1.00
N17    N     0.40895   0.33969   0.20097   0.00000  Uiso   1.00
W18    W     0.40655   0.34579   0.27356   0.00000  Uiso   1.00
N19    N     0.51844   0.33885   0.24971   0.00000  Uiso   1.00
W20    W     0.57401   0.83835   0.27425   0.00000  Uiso   1.00
N21    N     0.46211   0.84636   0.15292   0.00000  Uiso   1.00
N22    N     0.62794   0.33907   0.15327   0.00000  Uiso   1.00
Cr23   Cr    0.18753   0.34752   0.17713   0.00000  Uiso   1.00
N24    N     0.24309   0.84702   0.20167   0.00000  Uiso   1.00
Cr25   Cr    0.29702   0.34668   0.22587   0.00000  Uiso   1.00
Cr26   Cr    0.35503   0.84004   0.17677   0.00000  Uiso   1.00
Cr27   Cr    0.13119   0.85396   0.22551   0.00000  Uiso   1.00
N28    N     0.35262   0.84614   0.24936   0.00000  Uiso   1.00
N29    N     0.07563   0.35446   0.20097   0.00000  Uiso   1.00
W30    W     0.07322   0.36056   0.27356   0.00000  Uiso   1.00
N31    N     0.18512   0.35362   0.24971   0.00000  Uiso   1.00
W32    W     0.24068   0.85312   0.27425   0.00000  Uiso   1.00
N33    N     0.12879   0.86113   0.15292   0.00000  Uiso   1.00
N34    N     0.29462   0.35384   0.15327   0.00000  Uiso   1.00
Cr35   Cr    0.85418   0.31905   0.03195   0.00000  Uiso   1.00
N36    N     0.90974   0.81855   0.05649   0.00000  Uiso   1.00
Cr37   Cr    0.96367   0.31820   0.08069   0.00000  Uiso   1.00
Cr38   Cr    0.79784   0.82549   0.08033   0.00000  Uiso   1.00
N39    N     0.74228   0.32599   0.05579   0.00000  Uiso   1.00
Cr40   Cr    0.73987   0.33209   0.12838   0.00000  Uiso   1.00
N41    N     0.85177   0.32514   0.10453   0.00000  Uiso   1.00
Cr42   Cr    0.90733   0.82465   0.12907   0.00000  Uiso   1.00
N43    N     0.79544   0.83265   0.00774   0.00000  Uiso   1.00
N44    N     0.96127   0.32536   0.00809   0.00000  Uiso   1.00
Cr45   Cr    0.52086   0.33382   0.03195   0.00000  Uiso   1.00
N46    N     0.57642   0.83332   0.05649   0.00000  Uiso   1.00
Cr47   Cr    0.63035   0.33297   0.08069   0.00000  Uiso   1.00
Cr48   Cr    0.68835   0.82634   0.03160   0.00000  Uiso   1.00
Cr49   Cr    0.46452   0.84026   0.08033   0.00000  Uiso   1.00
N50    N     0.68594   0.83243   0.10418   0.00000  Uiso   1.00
N51    N     0.40896   0.34076   0.05579   0.00000  Uiso   1.00
Cr52   Cr    0.40655   0.34686   0.12838   0.00000  Uiso   1.00
N53    N     0.51845   0.33991   0.10453   0.00000  Uiso   1.00
Cr54   Cr    0.57401   0.83941   0.12907   0.00000  Uiso   1.00
N55    N     0.46212   0.84742   0.00774   0.00000  Uiso   1.00
N56    N     0.62794   0.34013   0.00809   0.00000  Uiso   1.00
Cr57   Cr    0.18754   0.34859   0.03195   0.00000  Uiso   1.00
N58    N     0.24310   0.84809   0.05649   0.00000  Uiso   1.00
Cr59   Cr    0.29703   0.34774   0.08069   0.00000  Uiso   1.00
Cr60   Cr    0.35503   0.84110   0.03159   0.00000  Uiso   1.00
Cr61   Cr    0.13120   0.85503   0.08033   0.00000  Uiso   1.00
N62    N     0.35262   0.84720   0.10418   0.00000  Uiso   1.00
N63    N     0.07564   0.35553   0.05579   0.00000  Uiso   1.00
Cr64   Cr    0.07323   0.36162   0.12838   0.00000  Uiso   1.00
N65    N     0.18513   0.35468   0.10453   0.00000  Uiso   1.00
Cr66   Cr    0.24069   0.85418   0.12907   0.00000  Uiso   1.00
N67    N     0.12880   0.86219   0.00774   0.00000  Uiso   1.00
N68    N     0.29462   0.35490   0.00809   0.00000  Uiso   1.00
Cr69   Cr    0.02336   0.84004   0.17677   0.00000  Uiso   1.00
N70    N     0.02096   0.84614   0.24936   0.00000  Uiso   1.00
Cr71   Cr    0.02337   0.84110   0.03159   0.00000  Uiso   1.00
N72    N     0.02096   0.84720   0.10418   0.00000  Uiso   1.00
Fe73   Fe    0.02866   0.35304   0.35102   0.00000  Uiso   1.00
Fe74   Fe    0.14090   0.34788   0.39822   0.00000  Uiso   1.00
Fe75   Fe    0.09001   0.34679   0.47784   0.00000  Uiso   1.00
Fe76   Fe    0.25313   0.34271   0.44543   0.00000  Uiso   1.00
Fe77   Fe    0.03913   0.34572   0.55745   0.00000  Uiso   1.00
Fe78   Fe    0.20224   0.34163   0.52505   0.00000  Uiso   1.00
Fe79   Fe    0.36537   0.33755   0.49264   0.00000  Uiso   1.00
Fe80   Fe    0.19178   0.34895   0.31861   0.00000  Uiso   1.00
Fe81   Fe    0.30402   0.34378   0.36582   0.00000  Uiso   1.00
Fe82   Fe    0.46714   0.33969   0.33342   0.00000  Uiso   1.00
Fe83   Fe    0.41625   0.33862   0.41302   0.00000  Uiso   1.00
Fe84   Fe    0.57938   0.33453   0.38062   0.00000  Uiso   1.00
Fe85   Fe    0.74250   0.33043   0.34822   0.00000  Uiso   1.00
Fe86   Fe    0.52848   0.33345   0.46024   0.00000  Uiso   1.00
Fe87   Fe    0.69161   0.32936   0.42783   0.00000  Uiso   1.00
Fe88   Fe    0.85474   0.32527   0.39542   0.00000  Uiso   1.00
Fe89   Fe    0.15136   0.34056   0.60466   0.00000  Uiso   1.00
Fe90   Fe    0.31448   0.33646   0.57225   0.00000  Uiso   1.00
Fe91   Fe    0.47760   0.33238   0.53985   0.00000  Uiso   1.00
Fe92   Fe    0.58984   0.32722   0.58706   0.00000  Uiso   1.00
Fe93   Fe    0.64072   0.32829   0.50744   0.00000  Uiso   1.00
Fe94   Fe    0.80385   0.32420   0.47504   0.00000  Uiso   1.00
Fe95   Fe    0.96697   0.32010   0.44263   0.00000  Uiso   1.00
Fe96   Fe    0.75295   0.32312   0.55465   0.00000  Uiso   1.00
Fe97   Fe    0.91608   0.31903   0.52225   0.00000  Uiso   1.00
Fe98   Fe    0.86520   0.31796   0.60186   0.00000  Uiso   1.00
Fe99   Fe    0.11612   0.83045   0.43809   0.00000  Uiso   1.00
Fe100  Fe    0.06524   0.82938   0.51770   0.00000  Uiso   1.00
Fe101  Fe    0.22835   0.82529   0.48530   0.00000  Uiso   1.00
Fe102  Fe    0.05478   0.83669   0.31127   0.00000  Uiso   1.00
Fe103  Fe    0.16701   0.83153   0.35847   0.00000  Uiso   1.00
Fe104  Fe    0.33013   0.82743   0.32607   0.00000  Uiso   1.00
Fe105  Fe    0.27924   0.82636   0.40568   0.00000  Uiso   1.00
Fe106  Fe    0.44236   0.82227   0.37328   0.00000  Uiso   1.00
Fe107  Fe    0.60549   0.81819   0.34087   0.00000  Uiso   1.00
Fe108  Fe    0.39148   0.82120   0.45289   0.00000  Uiso   1.00
Fe109  Fe    0.55460   0.81710   0.42048   0.00000  Uiso   1.00
Fe110  Fe    0.71772   0.81302   0.38808   0.00000  Uiso   1.00
Fe111  Fe    0.88085   0.80893   0.35567   0.00000  Uiso   1.00
Fe112  Fe    0.01435   0.82831   0.59732   0.00000  Uiso   1.00
Fe113  Fe    0.17747   0.82422   0.56492   0.00000  Uiso   1.00
Fe114  Fe    0.34059   0.82012   0.53250   0.00000  Uiso   1.00
Fe115  Fe    0.45282   0.81496   0.57972   0.00000  Uiso   1.00
Fe116  Fe    0.50371   0.81603   0.50010   0.00000  Uiso   1.00
Fe117  Fe    0.66683   0.81194   0.46770   0.00000  Uiso   1.00
Fe118  Fe    0.82996   0.80786   0.43528   0.00000  Uiso   1.00
Fe119  Fe    1.00639   0.80308   0.39023   0.00000  Uiso   1.00
Fe120  Fe    0.61595   0.81087   0.54730   0.00000  Uiso   1.00
Fe121  Fe    0.77907   0.80677   0.51490   0.00000  Uiso   1.00
Fe122  Fe    0.94219   0.80269   0.48250   0.00000  Uiso   1.00
Fe123  Fe    0.72818   0.80570   0.59452   0.00000  Uiso   1.00
Fe124  Fe    0.89130   0.80161   0.56211   0.00000  Uiso   1.00
Fe125  Fe    0.91109   0.32387   0.31617   0.00000  Uiso   1.00
Fe126  Fe    0.76953   0.81185   0.30843   0.00000  Uiso   1.00
