data_Structure_1-Cr
_audit_creation_date              2024-04-23
_audit_creation_method            'Materials Studio'
_symmetry_space_group_name_H-M    'P1'
_symmetry_Int_Tables_number       1
_symmetry_cell_setting            triclinic
loop_
_symmetry_equiv_pos_as_xyz
  x,y,z
_cell_length_a                    15.3990
_cell_length_b                    2.9630
_cell_length_c                    50.0000
_cell_angle_alpha                 90.0000
_cell_angle_beta                  90.0000
_cell_angle_gamma                 90.0000
loop_
_atom_site_label
_atom_site_type_symbol
_atom_site_fract_x
_atom_site_fract_y
_atom_site_fract_z
_atom_site_U_iso_or_equiv
_atom_site_adp_type
_atom_site_occupancy
Cr1    Cr    0.85417   0.31798   0.17713   0.00000  Uiso   1.00
N2     N     0.90973   0.81748   0.20167   0.00000  Uiso   1.00
Cr3    Cr    0.96366   0.31714   0.22587   0.00000  Uiso   1.00
Cr4    Cr    0.79784   0.82443   0.22551   0.00000  Uiso   1.00
N5     N     0.74227   0.32492   0.20097   0.00000  Uiso   1.00
Cr6    Cr    0.73987   0.33102   0.27356   0.00000  Uiso   1.00
N7     N     0.85176   0.32408   0.24971   0.00000  Uiso   1.00
Cr8    Cr    0.90733   0.82358   0.27425   0.00000  Uiso   1.00
N9     N     0.79543   0.83159   0.15292   0.00000  Uiso   1.00
N10    N     0.96126   0.32430   0.15327   0.00000  Uiso   1.00
Cr11   Cr    0.52085   0.33275   0.17713   0.00000  Uiso   1.00
N12    N     0.57641   0.83225   0.20167   0.00000  Uiso   1.00
Cr13   Cr    0.63034   0.33191   0.22587   0.00000  Uiso   1.00
Cr14   Cr    0.68835   0.82527   0.17678   0.00000  Uiso   1.00
Cr15   Cr    0.46452   0.83919   0.22551   0.00000  Uiso   1.00
N16    N     0.68594   0.83137   0.24936   0.00000  Uiso   1.00
N17    N     0.40895   0.33969   0.20097   0.00000  Uiso   1.00
Cr18   Cr    0.40655   0.34579   0.27356   0.00000  Uiso   1.00
N19    N     0.51844   0.33885   0.24971   0.00000  Uiso   1.00
Cr20   Cr    0.57401   0.83835   0.27425   0.00000  Uiso   1.00
N21    N     0.46211   0.84636   0.15292   0.00000  Uiso   1.00
N22    N     0.62794   0.33907   0.15327   0.00000  Uiso   1.00
Cr23   Cr    0.18753   0.34752   0.17713   0.00000  Uiso   1.00
N24    N     0.24309   0.84702   0.20167   0.00000  Uiso   1.00
Cr25   Cr    0.29702   0.34668   0.22587   0.00000  Uiso   1.00
Cr26   Cr    0.35503   0.84004   0.17677   0.00000  Uiso   1.00
Cr27   Cr    0.13119   0.85396   0.22551   0.00000  Uiso   1.00
N28    N     0.35262   0.84614   0.24936   0.00000  Uiso   1.00
N29    N     0.07563   0.35446   0.20097   0.00000  Uiso   1.00
Cr30   Cr    0.07322   0.36056   0.27356   0.00000  Uiso   1.00
N31    N     0.18512   0.35362   0.24971   0.00000  Uiso   1.00
Cr32   Cr    0.24068   0.85312   0.27425   0.00000  Uiso   1.00
N33    N     0.12879   0.86113   0.15292   0.00000  Uiso   1.00
N34    N     0.29462   0.35384   0.15327   0.00000  Uiso   1.00
Cr35   Cr    0.85418   0.31905   0.03195   0.00000  Uiso   1.00
N36    N     0.90974   0.81855   0.05649   0.00000  Uiso   1.00
Cr37   Cr    0.96367   0.31820   0.08069   0.00000  Uiso   1.00
Cr38   Cr    0.79784   0.82549   0.08033   0.00000  Uiso   1.00
N39    N     0.74228   0.32599   0.05579   0.00000  Uiso   1.00
Cr40   Cr    0.73987   0.33209   0.12838   0.00000  Uiso   1.00
N41    N     0.85177   0.32514   0.10453   0.00000  Uiso   1.00
Cr42   Cr    0.90733   0.82465   0.12907   0.00000  Uiso   1.00
N43    N     0.79544   0.83265   0.00774   0.00000  Uiso   1.00
N44    N     0.96127   0.32536   0.00809   0.00000  Uiso   1.00
Cr45   Cr    0.52086   0.33382   0.03195   0.00000  Uiso   1.00
N46    N     0.57642   0.83332   0.05649   0.00000  Uiso   1.00
Cr47   Cr    0.63035   0.33297   0.08069   0.00000  Uiso   1.00
Cr48   Cr    0.68835   0.82634   0.03160   0.00000  Uiso   1.00
Cr49   Cr    0.46452   0.84026   0.08033   0.00000  Uiso   1.00
N50    N     0.68594   0.83243   0.10418   0.00000  Uiso   1.00
N51    N     0.40896   0.34076   0.05579   0.00000  Uiso   1.00
Cr52   Cr    0.40655   0.34686   0.12838   0.00000  Uiso   1.00
N53    N     0.51845   0.33991   0.10453   0.00000  Uiso   1.00
Cr54   Cr    0.57401   0.83941   0.12907   0.00000  Uiso   1.00
N55    N     0.46212   0.84742   0.00774   0.00000  Uiso   1.00
N56    N     0.62794   0.34013   0.00809   0.00000  Uiso   1.00
Cr57   Cr    0.18754   0.34859   0.03195   0.00000  Uiso   1.00
N58    N     0.24310   0.84809   0.05649   0.00000  Uiso   1.00
Cr59   Cr    0.29703   0.34774   0.08069   0.00000  Uiso   1.00
Cr60   Cr    0.35503   0.84110   0.03159   0.00000  Uiso   1.00
Cr61   Cr    0.13120   0.85503   0.08033   0.00000  Uiso   1.00
N62    N     0.35262   0.84720   0.10418   0.00000  Uiso   1.00
N63    N     0.07564   0.35553   0.05579   0.00000  Uiso   1.00
Cr64   Cr    0.07323   0.36162   0.12838   0.00000  Uiso   1.00
N65    N     0.18513   0.35468   0.10453   0.00000  Uiso   1.00
Cr66   Cr    0.24069   0.85418   0.12907   0.00000  Uiso   1.00
N67    N     0.12880   0.86219   0.00774   0.00000  Uiso   1.00
N68    N     0.29462   0.35490   0.00809   0.00000  Uiso   1.00
Cr69   Cr    0.02336   0.84004   0.17677   0.00000  Uiso   1.00
N70    N     0.02096   0.84614   0.24936   0.00000  Uiso   1.00
Cr71   Cr    0.02337   0.84110   0.03159   0.00000  Uiso   1.00
N72    N     0.02096   0.84720   0.10418   0.00000  Uiso   1.00
Fe73   Fe    0.04516   0.35304   0.36623   0.00000  Uiso   1.00
Fe74   Fe    0.15873   0.34788   0.41313   0.00000  Uiso   1.00
Fe75   Fe    0.11011   0.34679   0.49288   0.00000  Uiso   1.00
Fe76   Fe    0.27230   0.34271   0.46004   0.00000  Uiso   1.00
Fe77   Fe    0.06148   0.34572   0.57263   0.00000  Uiso   1.00
Fe78   Fe    0.22367   0.34163   0.53979   0.00000  Uiso   1.00
Fe79   Fe    0.38587   0.33755   0.50694   0.00000  Uiso   1.00
Fe80   Fe    0.20736   0.34895   0.33338   0.00000  Uiso   1.00
Fe81   Fe    0.32094   0.34378   0.38029   0.00000  Uiso   1.00
Fe82   Fe    0.48313   0.33969   0.34745   0.00000  Uiso   1.00
Fe83   Fe    0.43450   0.33862   0.42719   0.00000  Uiso   1.00
Fe84   Fe    0.59670   0.33453   0.39435   0.00000  Uiso   1.00
Fe85   Fe    0.75889   0.33043   0.36151   0.00000  Uiso   1.00
Fe86   Fe    0.54806   0.33345   0.47410   0.00000  Uiso   1.00
Fe87   Fe    0.71026   0.32936   0.44126   0.00000  Uiso   1.00
Fe88   Fe    0.87247   0.32527   0.40841   0.00000  Uiso   1.00
Fe89   Fe    0.17504   0.34056   0.61953   0.00000  Uiso   1.00
Fe90   Fe    0.33724   0.33646   0.58669   0.00000  Uiso   1.00
Fe91   Fe    0.49943   0.33238   0.55385   0.00000  Uiso   1.00
Fe92   Fe    0.61301   0.32722   0.60075   0.00000  Uiso   1.00
Fe93   Fe    0.66164   0.32829   0.52100   0.00000  Uiso   1.00
Fe94   Fe    0.82384   0.32420   0.48816   0.00000  Uiso   1.00
Fe95   Fe    0.98603   0.32010   0.45532   0.00000  Uiso   1.00
Fe96   Fe    0.77520   0.32312   0.56791   0.00000  Uiso   1.00
Fe97   Fe    0.93740   0.31903   0.53507   0.00000  Uiso   1.00
Fe98   Fe    0.88877   0.31796   0.61481   0.00000  Uiso   1.00
Fe99   Fe    0.13509   0.83045   0.45306   0.00000  Uiso   1.00
Fe100  Fe    0.08646   0.82938   0.53281   0.00000  Uiso   1.00
Fe101  Fe    0.24865   0.82529   0.49997   0.00000  Uiso   1.00
Fe102  Fe    0.07015   0.83669   0.32641   0.00000  Uiso   1.00
Fe103  Fe    0.18372   0.83153   0.37331   0.00000  Uiso   1.00
Fe104  Fe    0.34592   0.82743   0.34047   0.00000  Uiso   1.00
Fe105  Fe    0.29728   0.82636   0.42022   0.00000  Uiso   1.00
Fe106  Fe    0.45948   0.82227   0.38738   0.00000  Uiso   1.00
Fe107  Fe    0.62168   0.81819   0.35453   0.00000  Uiso   1.00
Fe108  Fe    0.41085   0.82120   0.46712   0.00000  Uiso   1.00
Fe109  Fe    0.57305   0.81710   0.43428   0.00000  Uiso   1.00
Fe110  Fe    0.73525   0.81302   0.40144   0.00000  Uiso   1.00
Fe111  Fe    0.89745   0.80893   0.36859   0.00000  Uiso   1.00
Fe112  Fe    0.03783   0.82831   0.61256   0.00000  Uiso   1.00
Fe113  Fe    0.20002   0.82422   0.57972   0.00000  Uiso   1.00
Fe114  Fe    0.36223   0.82012   0.54687   0.00000  Uiso   1.00
Fe115  Fe    0.47579   0.81496   0.59378   0.00000  Uiso   1.00
Fe116  Fe    0.52442   0.81603   0.51403   0.00000  Uiso   1.00
Fe117  Fe    0.68662   0.81194   0.48119   0.00000  Uiso   1.00
Fe118  Fe    0.84882   0.80786   0.44834   0.00000  Uiso   1.00
Fe119  Fe    1.01101   0.80376   0.41550   0.00000  Uiso   1.00
Fe120  Fe    0.63799   0.81087   0.56093   0.00000  Uiso   1.00
Fe121  Fe    0.80019   0.80677   0.52809   0.00000  Uiso   1.00
Fe122  Fe    0.96238   0.80269   0.49525   0.00000  Uiso   1.00
Fe123  Fe    0.75155   0.80570   0.60784   0.00000  Uiso   1.00
Fe124  Fe    0.91376   0.80161   0.57500   0.00000  Uiso   1.00
loop_
_geom_bond_atom_site_label_1
_geom_bond_atom_site_label_2
_geom_bond_distance
_geom_bond_site_symmetry_2
_ccdc_geom_bond_type
Cr1    N2      2.104   .     S
Cr1    N2      2.106   1_545 S
Cr1    N5      2.095   .     S
Cr1    N9      2.088   1_545 S
Cr1    N10     2.035   .     S
N2     Cr1     2.106   1_565 S
N2     Cr3     2.086   .     S
N2     Cr3     2.085   1_565 S
N2     Cr4     2.095   .     S
N2     Cr69    2.148   1_655 S
Cr3    N2      2.085   1_545 S
Cr3    N7      2.095   .     S
Cr3    N29     2.130   1_655 S
Cr3    N70     2.026   1_645 S
Cr3    N70     2.148   1_655 S
Cr4    N5      2.104   .     S
Cr4    N5      2.106   1_565 S
Cr4    N7      2.086   .     S
Cr4    N7      2.085   1_565 S
Cr4    N16     2.095   .     S
N5     Cr4     2.106   1_545 S
N5     Cr13    2.126   .     S
N5     Cr14    2.086   .     S
N5     Cr14    2.085   1_545 S
Cr6    N7      2.095   .     S
Cr6    N16     2.086   .     S
Cr6    N16     2.085   1_545 S
N7     Cr4     2.085   1_545 S
N7     Cr8     2.104   .     S
N7     Cr8     2.106   1_545 S
Cr8    N7      2.106   1_565 S
Cr8    N70     2.148   1_655 S
N9     Cr1     2.088   1_565 S
N9     Cr14    2.035   .     S
N9     Cr40    2.104   .     S
N9     Cr40    2.106   1_565 S
N9     Cr42    2.095   .     S
N10    Cr42    2.086   .     S
N10    Cr42    2.085   1_545 S
N10    Cr64    2.130   1_655 S
N10    Cr69    2.087   1_645 S
N10    Cr69    2.152   1_655 S
Cr11   N12     2.104   .     S
Cr11   N12     2.106   1_545 S
Cr11   N17     2.095   .     S
Cr11   N21     2.088   1_545 S
Cr11   N22     2.035   .     S
N12    Cr11    2.106   1_565 S
N12    Cr13    2.086   .     S
N12    Cr13    2.085   1_565 S
N12    Cr14    2.126   .     S
N12    Cr15    2.095   .     S
Cr13   N12     2.085   1_545 S
Cr13   N16     2.076   1_545 S
Cr13   N19     2.095   .     S
Cr14   N5      2.085   1_565 S
Cr14   N22     2.079   .     S
Cr14   N22     2.136   1_565 S
Cr15   N17     2.104   .     S
Cr15   N17     2.106   1_565 S
Cr15   N19     2.086   .     S
Cr15   N19     2.085   1_565 S
Cr15   N28     2.095   .     S
N16    Cr6     2.085   1_565 S
N16    Cr13    2.076   1_565 S
N16    Cr20    2.126   .     S
N17    Cr15    2.106   1_545 S
N17    Cr25    2.126   .     S
N17    Cr26    2.086   .     S
N17    Cr26    2.085   1_545 S
Cr18   N19     2.095   .     S
Cr18   N28     2.086   .     S
Cr18   N28     2.085   1_545 S
N19    Cr15    2.085   1_545 S
N19    Cr20    2.104   .     S
N19    Cr20    2.106   1_545 S
Cr20   N19     2.106   1_565 S
N21    Cr11    2.088   1_565 S
N21    Cr26    2.035   .     S
N21    Cr52    2.104   .     S
N21    Cr52    2.106   1_565 S
N21    Cr54    2.095   .     S
N22    Cr14    2.136   1_545 S
N22    Cr40    2.126   .     S
N22    Cr54    2.086   .     S
N22    Cr54    2.085   1_545 S
Cr23   N24     2.104   .     S
Cr23   N24     2.106   1_545 S
Cr23   N29     2.095   .     S
Cr23   N33     2.088   1_545 S
Cr23   N34     2.035   .     S
N24    Cr23    2.106   1_565 S
N24    Cr25    2.086   .     S
N24    Cr25    2.085   1_565 S
N24    Cr26    2.126   .     S
N24    Cr27    2.095   .     S
Cr25   N24     2.085   1_545 S
Cr25   N28     2.076   1_545 S
Cr25   N31     2.095   .     S
Cr26   N17     2.085   1_565 S
Cr26   N34     2.079   .     S
Cr26   N34     2.136   1_565 S
Cr27   N29     2.104   .     S
Cr27   N29     2.106   1_565 S
Cr27   N31     2.086   .     S
Cr27   N31     2.085   1_565 S
Cr27   N70     2.075   .     S
N28    Cr18    2.085   1_565 S
N28    Cr25    2.076   1_565 S
N28    Cr32    2.126   .     S
N29    Cr3     2.130   1_455 S
N29    Cr27    2.106   1_545 S
N29    Cr69    2.045   .     S
N29    Cr69    2.106   1_545 S
Cr30   N31     2.095   .     S
Cr30   N70     2.045   .     S
Cr30   N70     2.106   1_545 S
N31    Cr27    2.085   1_545 S
N31    Cr32    2.104   .     S
N31    Cr32    2.106   1_545 S
Cr32   N31     2.106   1_565 S
N33    Cr23    2.088   1_565 S
N33    Cr64    2.104   .     S
N33    Cr64    2.106   1_565 S
N33    Cr66    2.095   .     S
N33    Cr69    2.016   .     S
N34    Cr26    2.136   1_545 S
N34    Cr52    2.126   .     S
N34    Cr66    2.086   .     S
N34    Cr66    2.085   1_545 S
Cr35   N36     2.104   .     S
Cr35   N36     2.106   1_545 S
Cr35   N39     2.095   .     S
Cr35   N43     2.145   .     S
Cr35   N43     2.088   1_545 S
Cr35   N44     2.035   .     S
N36    Cr35    2.106   1_565 S
N36    Cr37    2.086   .     S
N36    Cr37    2.085   1_565 S
N36    Cr38    2.095   .     S
N36    Cr71    2.148   1_655 S
Cr37   N36     2.085   1_545 S
Cr37   N41     2.095   .     S
Cr37   N63     2.130   1_655 S
Cr37   N72     2.148   1_655 S
Cr37   N72     2.026   1_645 S
Cr38   N39     2.104   .     S
Cr38   N39     2.106   1_565 S
Cr38   N41     2.086   .     S
Cr38   N41     2.085   1_565 S
Cr38   N50     2.095   .     S
N39    Cr38    2.106   1_545 S
N39    Cr47    2.126   .     S
N39    Cr48    2.086   .     S
N39    Cr48    2.085   1_545 S
Cr40   N9      2.106   1_545 S
Cr40   N41     2.095   .     S
Cr40   N50     2.085   1_545 S
N41    Cr38    2.085   1_545 S
N41    Cr42    2.106   1_545 S
Cr42   N10     2.085   1_565 S
Cr42   N41     2.106   1_565 S
Cr42   N72     2.148   1_655 S
N43    Cr35    2.088   1_565 S
N43    Cr48    2.035   .     S
N44    Cr71    2.152   1_655 S
N44    Cr71    2.087   1_645 S
Cr45   N46     2.104   .     S
Cr45   N46     2.106   1_545 S
Cr45   N51     2.095   .     S
Cr45   N55     2.145   .     S
Cr45   N55     2.088   1_545 S
Cr45   N56     2.035   .     S
N46    Cr45    2.106   1_565 S
N46    Cr47    2.086   .     S
N46    Cr47    2.085   1_565 S
N46    Cr48    2.126   .     S
N46    Cr49    2.095   .     S
Cr47   N46     2.085   1_545 S
Cr47   N50     2.074   .     S
Cr47   N50     2.076   1_545 S
Cr47   N53     2.095   .     S
Cr48   N39     2.085   1_565 S
Cr48   N56     2.079   .     S
Cr48   N56     2.136   1_565 S
Cr49   N51     2.104   .     S
Cr49   N51     2.106   1_565 S
Cr49   N53     2.086   .     S
Cr49   N53     2.085   1_565 S
Cr49   N62     2.095   .     S
N50    Cr47    2.076   1_565 S
N50    Cr40    2.085   1_565 S
N50    Cr54    2.126   .     S
N51    Cr49    2.106   1_545 S
N51    Cr59    2.126   .     S
N51    Cr60    2.086   .     S
N51    Cr60    2.085   1_545 S
Cr52   N21     2.106   1_545 S
Cr52   N53     2.095   .     S
Cr52   N62     2.085   1_545 S
N53    Cr49    2.085   1_545 S
N53    Cr54    2.106   1_545 S
Cr54   N22     2.085   1_565 S
Cr54   N53     2.106   1_565 S
N55    Cr45    2.088   1_565 S
N55    Cr60    2.035   .     S
N56    Cr48    2.136   1_545 S
Cr57   N58     2.104   .     S
Cr57   N58     2.106   1_545 S
Cr57   N63     2.095   .     S
Cr57   N67     2.145   .     S
Cr57   N67     2.088   1_545 S
Cr57   N68     2.035   .     S
N58    Cr57    2.106   1_565 S
N58    Cr59    2.086   .     S
N58    Cr59    2.085   1_565 S
N58    Cr60    2.126   .     S
N58    Cr61    2.095   .     S
Cr59   N58     2.085   1_545 S
Cr59   N62     2.074   .     S
Cr59   N62     2.076   1_545 S
Cr59   N65     2.095   .     S
Cr60   N51     2.085   1_565 S
Cr60   N68     2.079   .     S
Cr60   N68     2.136   1_565 S
Cr61   N63     2.104   .     S
Cr61   N63     2.106   1_565 S
Cr61   N65     2.086   .     S
Cr61   N65     2.085   1_565 S
Cr61   N72     2.075   .     S
N62    Cr59    2.076   1_565 S
N62    Cr52    2.085   1_565 S
N62    Cr66    2.126   .     S
N63    Cr37    2.130   1_455 S
N63    Cr61    2.106   1_545 S
N63    Cr71    2.045   .     S
N63    Cr71    2.106   1_545 S
Cr64   N10     2.130   1_455 S
Cr64   N33     2.106   1_545 S
Cr64   N65     2.095   .     S
Cr64   N72     2.106   1_545 S
N65    Cr61    2.085   1_545 S
N65    Cr66    2.106   1_545 S
Cr66   N34     2.085   1_565 S
Cr66   N65     2.106   1_565 S
N67    Cr57    2.088   1_565 S
N67    Cr71    2.016   .     S
N68    Cr60    2.136   1_545 S
Cr69   N2      2.148   1_455 S
Cr69   N29     2.106   1_565 S
Cr69   N10     2.087   1_465 S
Cr69   N10     2.152   1_455 S
N70    Cr8     2.148   1_455 S
N70    Cr30    2.106   1_565 S
N70    Cr3     2.026   1_465 S
N70    Cr3     2.148   1_455 S
Cr71   N36     2.148   1_455 S
Cr71   N44     2.152   1_455 S
Cr71   N63     2.106   1_565 S
Cr71   N44     2.087   1_465 S
N72    Cr37    2.148   1_455 S
N72    Cr37    2.026   1_465 S
N72    Cr64    2.106   1_565 S
N72    Cr42    2.148   1_455 S
Fe73   Fe102   2.540   1_545 S
Fe73   Fe103   2.586   .     S
Fe73   Fe103   2.658   1_545 S
Fe73   Fe111   2.648   1_455 S
Fe73   Fe111   2.791   1_445 S
Fe73   Fe119   2.851   1_455 S
Fe74   Fe99    2.483   .     S
Fe74   Fe99    2.543   1_545 S
Fe74   Fe103   2.540   1_545 S
Fe74   Fe105   2.586   .     S
Fe74   Fe105   2.658   1_545 S
Fe74   Fe119   2.648   1_455 S
Fe74   Fe119   2.791   1_445 S
Fe75   Fe95    2.680   1_455 S
Fe75   Fe99    2.540   1_545 S
Fe75   Fe100   2.543   1_545 S
Fe75   Fe101   2.586   .     S
Fe75   Fe101   2.658   1_545 S
Fe75   Fe122   2.648   1_455 S
Fe75   Fe122   2.791   1_445 S
Fe76   Fe99    2.584   .     S
Fe76   Fe99    2.625   1_545 S
Fe76   Fe101   2.543   1_545 S
Fe76   Fe105   2.483   .     S
Fe76   Fe105   2.540   1_545 S
Fe76   Fe108   2.658   1_545 S
Fe77   Fe97    2.680   1_455 S
Fe77   Fe100   2.483   .     S
Fe77   Fe100   2.540   1_545 S
Fe77   Fe112   2.543   1_545 S
Fe77   Fe113   2.658   1_545 S
Fe77   Fe124   2.648   1_455 S
Fe77   Fe124   2.791   1_445 S
Fe78   Fe100   2.584   .     S
Fe78   Fe100   2.625   1_545 S
Fe78   Fe101   2.540   1_545 S
Fe78   Fe113   2.543   1_545 S
Fe78   Fe114   2.586   .     S
Fe78   Fe114   2.658   1_545 S
Fe79   Fe101   2.584   .     S
Fe79   Fe101   2.625   1_545 S
Fe79   Fe108   2.483   .     S
Fe79   Fe108   2.540   1_545 S
Fe79   Fe114   2.543   1_545 S
Fe79   Fe116   2.586   .     S
Fe79   Fe116   2.658   1_545 S
Fe80   Fe102   2.583   .     S
Fe80   Fe102   2.625   1_545 S
Fe80   Fe103   2.543   1_545 S
Fe80   Fe104   2.586   .     S
Fe80   Fe104   2.658   1_545 S
Fe81   Fe103   2.584   .     S
Fe81   Fe103   2.625   1_545 S
Fe81   Fe104   2.540   1_545 S
Fe81   Fe105   2.543   1_545 S
Fe81   Fe106   2.586   .     S
Fe81   Fe106   2.658   1_545 S
Fe82   Fe104   2.584   .     S
Fe82   Fe104   2.625   1_545 S
Fe82   Fe106   2.543   1_545 S
Fe82   Fe107   2.658   1_545 S
Fe83   Fe105   2.584   .     S
Fe83   Fe105   2.625   1_545 S
Fe83   Fe106   2.540   1_545 S
Fe83   Fe108   2.543   1_545 S
Fe83   Fe109   2.586   .     S
Fe83   Fe109   2.658   1_545 S
Fe84   Fe106   2.584   .     S
Fe84   Fe106   2.625   1_545 S
Fe84   Fe107   2.483   .     S
Fe84   Fe107   2.540   1_545 S
Fe84   Fe109   2.543   1_545 S
Fe84   Fe110   2.586   .     S
Fe84   Fe110   2.658   1_545 S
Fe85   Fe107   2.584   .     S
Fe85   Fe107   2.625   1_545 S
Fe85   Fe110   2.483   .     S
Fe85   Fe110   2.543   1_545 S
Fe85   Fe111   2.586   .     S
Fe85   Fe111   2.658   1_545 S
Fe86   Fe108   2.584   .     S
Fe86   Fe108   2.625   1_545 S
Fe86   Fe109   2.540   1_545 S
Fe86   Fe116   2.483   .     S
Fe86   Fe116   2.543   1_545 S
Fe86   Fe117   2.586   .     S
Fe86   Fe117   2.658   1_545 S
Fe87   Fe109   2.584   .     S
Fe87   Fe109   2.625   1_545 S
Fe87   Fe110   2.540   1_545 S
Fe87   Fe117   2.543   1_545 S
Fe87   Fe118   2.586   .     S
Fe87   Fe118   2.658   1_545 S
Fe88   Fe110   2.625   1_545 S
Fe88   Fe111   2.540   1_545 S
Fe88   Fe118   2.483   .     S
Fe88   Fe118   2.543   1_545 S
Fe88   Fe119   2.586   .     S
Fe88   Fe119   2.658   1_545 S
Fe89   Fe112   2.583   .     S
Fe89   Fe112   2.625   1_545 S
Fe89   Fe113   2.483   .     S
Fe89   Fe113   2.540   1_545 S
Fe90   Fe113   2.584   .     S
Fe90   Fe113   2.625   1_545 S
Fe90   Fe114   2.540   1_545 S
Fe90   Fe115   2.586   .     S
Fe90   Fe115   2.658   1_545 S
Fe91   Fe114   2.584   .     S
Fe91   Fe114   2.625   1_545 S
Fe91   Fe115   2.543   1_545 S
Fe91   Fe116   2.540   1_545 S
Fe91   Fe120   2.586   .     S
Fe91   Fe120   2.658   1_545 S
Fe92   Fe115   2.584   .     S
Fe92   Fe115   2.625   1_545 S
Fe92   Fe120   2.540   1_545 S
Fe92   Fe123   2.586   .     S
Fe92   Fe123   2.658   1_545 S
Fe93   Fe116   2.584   .     S
Fe93   Fe116   2.625   1_545 S
Fe93   Fe117   2.483   .     S
Fe93   Fe117   2.540   1_545 S
Fe93   Fe120   2.543   1_545 S
Fe93   Fe121   2.658   1_545 S
Fe94   Fe117   2.584   .     S
Fe94   Fe117   2.625   1_545 S
Fe94   Fe118   2.540   1_545 S
Fe94   Fe121   2.543   1_545 S
Fe94   Fe122   2.586   .     S
Fe94   Fe122   2.658   1_545 S
Fe95   Fe75    2.680   1_655 S
Fe95   Fe99    2.751   1_655 S
Fe95   Fe99    2.718   1_645 S
Fe95   Fe118   2.584   .     S
Fe95   Fe118   2.625   1_545 S
Fe95   Fe119   2.483   .     S
Fe95   Fe119   2.540   1_545 S
Fe95   Fe122   2.543   1_545 S
Fe96   Fe120   2.584   .     S
Fe96   Fe120   2.625   1_545 S
Fe96   Fe121   2.483   .     S
Fe96   Fe121   2.540   1_545 S
Fe96   Fe123   2.543   1_545 S
Fe96   Fe124   2.586   .     S
Fe96   Fe124   2.658   1_545 S
Fe97   Fe77    2.680   1_655 S
Fe97   Fe100   2.751   1_655 S
Fe97   Fe100   2.718   1_645 S
Fe97   Fe121   2.584   .     S
Fe97   Fe121   2.625   1_545 S
Fe97   Fe122   2.540   1_545 S
Fe97   Fe124   2.483   .     S
Fe97   Fe124   2.543   1_545 S
Fe98   Fe112   2.751   1_655 S
Fe98   Fe112   2.718   1_645 S
Fe98   Fe123   2.584   .     S
Fe98   Fe123   2.625   1_545 S
Fe98   Fe124   2.540   1_545 S
Fe99   Fe95    2.751   1_455 S
Fe99   Fe74    2.543   1_565 S
Fe99   Fe95    2.718   1_465 S
Fe99   Fe76    2.625   1_565 S
Fe99   Fe75    2.540   1_565 S
Fe99   Fe119   2.680   1_455 S
Fe100  Fe97    2.751   1_455 S
Fe100  Fe77    2.540   1_565 S
Fe100  Fe97    2.718   1_465 S
Fe100  Fe78    2.625   1_565 S
Fe100  Fe75    2.543   1_565 S
Fe100  Fe122   2.680   1_455 S
Fe101  Fe75    2.658   1_565 S
Fe101  Fe79    2.625   1_565 S
Fe101  Fe76    2.543   1_565 S
Fe101  Fe78    2.540   1_565 S
Fe102  Fe80    2.625   1_565 S
Fe102  Fe73    2.540   1_565 S
Fe103  Fe73    2.658   1_565 S
Fe103  Fe81    2.625   1_565 S
Fe103  Fe80    2.543   1_565 S
Fe103  Fe74    2.540   1_565 S
Fe104  Fe80    2.658   1_565 S
Fe104  Fe82    2.625   1_565 S
Fe104  Fe81    2.540   1_565 S
Fe105  Fe76    2.540   1_565 S
Fe105  Fe74    2.658   1_565 S
Fe105  Fe83    2.625   1_565 S
Fe105  Fe81    2.543   1_565 S
Fe106  Fe81    2.658   1_565 S
Fe106  Fe84    2.625   1_565 S
Fe106  Fe82    2.543   1_565 S
Fe106  Fe83    2.540   1_565 S
Fe107  Fe84    2.540   1_565 S
Fe107  Fe85    2.625   1_565 S
Fe107  Fe82    2.658   1_565 S
Fe108  Fe79    2.540   1_565 S
Fe108  Fe86    2.625   1_565 S
Fe108  Fe83    2.543   1_565 S
Fe108  Fe76    2.658   1_565 S
Fe109  Fe87    2.625   1_565 S
Fe109  Fe83    2.658   1_565 S
Fe109  Fe84    2.543   1_565 S
Fe109  Fe86    2.540   1_565 S
Fe110  Fe84    2.658   1_565 S
Fe110  Fe85    2.543   1_565 S
Fe110  Fe87    2.540   1_565 S
Fe110  Fe88    2.625   1_565 S
Fe111  Fe73    2.648   1_655 S
Fe111  Fe85    2.658   1_565 S
Fe111  Fe73    2.791   1_665 S
Fe111  Fe88    2.540   1_565 S
Fe112  Fe98    2.751   1_455 S
Fe112  Fe89    2.625   1_565 S
Fe112  Fe98    2.718   1_465 S
Fe112  Fe77    2.543   1_565 S
Fe112  Fe124   2.680   1_455 S
Fe113  Fe90    2.625   1_565 S
Fe113  Fe89    2.540   1_565 S
Fe113  Fe78    2.543   1_565 S
Fe113  Fe77    2.658   1_565 S
Fe114  Fe78    2.658   1_565 S
Fe114  Fe91    2.625   1_565 S
Fe114  Fe79    2.543   1_565 S
Fe114  Fe90    2.540   1_565 S
Fe115  Fe90    2.658   1_565 S
Fe115  Fe92    2.625   1_565 S
Fe115  Fe91    2.543   1_565 S
Fe116  Fe79    2.658   1_565 S
Fe116  Fe86    2.543   1_565 S
Fe116  Fe93    2.625   1_565 S
Fe116  Fe91    2.540   1_565 S
Fe117  Fe93    2.540   1_565 S
Fe117  Fe86    2.658   1_565 S
Fe117  Fe94    2.625   1_565 S
Fe117  Fe87    2.543   1_565 S
Fe118  Fe88    2.543   1_565 S
Fe118  Fe87    2.658   1_565 S
Fe118  Fe95    2.625   1_565 S
Fe118  Fe94    2.540   1_565 S
Fe119  Fe74    2.648   1_655 S
Fe119  Fe99    2.680   1_655 S
Fe119  Fe74    2.791   1_665 S
Fe119  Fe88    2.658   1_565 S
Fe119  Fe95    2.540   1_565 S
Fe119  Fe73    2.851   1_655 S
Fe120  Fe91    2.658   1_565 S
Fe120  Fe96    2.625   1_565 S
Fe120  Fe93    2.543   1_565 S
Fe120  Fe92    2.540   1_565 S
Fe121  Fe96    2.540   1_565 S
Fe121  Fe97    2.625   1_565 S
Fe121  Fe94    2.543   1_565 S
Fe121  Fe93    2.658   1_565 S
Fe122  Fe75    2.648   1_655 S
Fe122  Fe75    2.791   1_665 S
Fe122  Fe94    2.658   1_565 S
Fe122  Fe95    2.543   1_565 S
Fe122  Fe97    2.540   1_565 S
Fe122  Fe100   2.680   1_655 S
Fe123  Fe92    2.658   1_565 S
Fe123  Fe98    2.625   1_565 S
Fe123  Fe96    2.543   1_565 S
Fe124  Fe77    2.648   1_655 S
Fe124  Fe96    2.658   1_565 S
Fe124  Fe97    2.543   1_565 S
Fe124  Fe77    2.791   1_665 S
Fe124  Fe98    2.540   1_565 S
Fe124  Fe112   2.680   1_655 S
