data_Structure_1-Cr_Fe2Mo_
_audit_creation_date              2024-04-26
_audit_creation_method            'Materials Studio'
_symmetry_space_group_name_H-M    'P1'
_symmetry_Int_Tables_number       1
_symmetry_cell_setting            triclinic
loop_
_symmetry_equiv_pos_as_xyz
  x,y,z
_cell_length_a                    2.7260
_cell_length_b                    14.1680
_cell_length_c                    48.5220
_cell_angle_alpha                 90.0000
_cell_angle_beta                  90.0000
_cell_angle_gamma                 90.0000
loop_
_atom_site_label
_atom_site_type_symbol
_atom_site_fract_x
_atom_site_fract_y
_atom_site_fract_z
_atom_site_U_iso_or_equiv
_atom_site_adp_type
_atom_site_occupancy
Cr0    Cr    0.34022   0.83420   0.18641   0.00000  Uiso   1.00
Cr1    Cr    0.33985   0.94389   0.23838   0.00000  Uiso   1.00
Cr2    Cr    0.83962   0.80419   0.24244   0.00000  Uiso   1.00
Cr3    Cr    0.33666   0.73708   0.29615   0.00000  Uiso   1.00
Cr4    Cr    0.83918   0.91673   0.29217   0.00000  Uiso   1.00
Cr5    Cr    0.34249   0.50529   0.18437   0.00000  Uiso   1.00
Cr6    Cr    0.34116   0.61626   0.23681   0.00000  Uiso   1.00
Cr7    Cr    0.84056   0.69543   0.18779   0.00000  Uiso   1.00
Cr8    Cr    0.83962   0.47711   0.23934   0.00000  Uiso   1.00
Cr9    Cr    0.33713   0.40360   0.28686   0.00000  Uiso   1.00
Cr10   Cr    0.83785   0.56926   0.29192   0.00000  Uiso   1.00
Cr11   Cr    0.34741   0.16831   0.18411   0.00000  Uiso   1.00
Cr12   Cr    0.34128   0.28413   0.23351   0.00000  Uiso   1.00
Cr13   Cr    0.84255   0.36466   0.18634   0.00000  Uiso   1.00
Cr14   Cr    0.83857   0.14070   0.23584   0.00000  Uiso   1.00
Cr15   Cr    0.33665   0.07402   0.28415   0.00000  Uiso   1.00
Cr16   Cr    0.83659   0.24530   0.28570   0.00000  Uiso   1.00
Cr17   Cr    0.31905   0.85418   0.03292   0.00000  Uiso   1.00
Cr18   Cr    0.31820   0.96367   0.08315   0.00000  Uiso   1.00
Cr19   Cr    0.82549   0.79784   0.08278   0.00000  Uiso   1.00
Cr20   Cr    0.33209   0.73987   0.13229   0.00000  Uiso   1.00
Cr21   Cr    0.82465   0.90733   0.13300   0.00000  Uiso   1.00
Cr22   Cr    0.33382   0.52086   0.03292   0.00000  Uiso   1.00
Cr23   Cr    0.33297   0.63035   0.08315   0.00000  Uiso   1.00
Cr24   Cr    0.82634   0.68835   0.03256   0.00000  Uiso   1.00
Cr25   Cr    0.84026   0.46452   0.08278   0.00000  Uiso   1.00
Cr26   Cr    0.34686   0.40655   0.13229   0.00000  Uiso   1.00
Cr27   Cr    0.83941   0.57401   0.13300   0.00000  Uiso   1.00
Cr28   Cr    0.34859   0.18754   0.03292   0.00000  Uiso   1.00
Cr29   Cr    0.34774   0.29703   0.08315   0.00000  Uiso   1.00
Cr30   Cr    0.84110   0.35503   0.03255   0.00000  Uiso   1.00
Cr31   Cr    0.85503   0.13120   0.08278   0.00000  Uiso   1.00
Cr32   Cr    0.36162   0.07323   0.13229   0.00000  Uiso   1.00
Cr33   Cr    0.85418   0.24069   0.13300   0.00000  Uiso   1.00
Cr34   Cr    0.84367   0.02676   0.18587   0.00000  Uiso   1.00
Cr35   Cr    0.84110   0.02337   0.03255   0.00000  Uiso   1.00
Fe36   Fe    0.32848  -0.00038   0.36054   0.00000  Uiso   1.00
Fe37   Fe    0.32957   0.09978   0.39917   0.00000  Uiso   1.00
Fe38   Fe    0.34679   0.11011   0.47743   0.00000  Uiso   1.00
Fe39   Fe    0.34271   0.27230   0.44359   0.00000  Uiso   1.00
Fe40   Fe    0.34572   0.06148   0.55961   0.00000  Uiso   1.00
Fe41   Fe    0.34163   0.22367   0.52577   0.00000  Uiso   1.00
Fe42   Fe    0.33755   0.38587   0.49192   0.00000  Uiso   1.00
Fe43   W     0.33370   0.18841   0.32379   0.00000  Uiso   1.00
Fe44   Fe    0.33248   0.29966   0.36631   0.00000  Uiso   1.00
Fe45   W     0.33238   0.48533   0.33167   0.00000  Uiso   1.00
Fe46   Fe    0.32921   0.38834   0.40943   0.00000  Uiso   1.00
Fe47   Fe    0.32776   0.58805   0.37564   0.00000  Uiso   1.00
Fe48   W     0.32528   0.74744   0.34870   0.00000  Uiso   1.00
Fe49   Fe    0.33345   0.54806   0.45808   0.00000  Uiso   1.00
Fe50   Fe    0.32264   0.67029   0.42553   0.00000  Uiso   1.00
Fe51   Fe    0.32465   0.85248   0.38341   0.00000  Uiso   1.00
Fe52   Fe    0.34056   0.17504   0.60794   0.00000  Uiso   1.00
Fe53   Fe    0.33646   0.33724   0.57410   0.00000  Uiso   1.00
Fe54   Fe    0.33238   0.49943   0.54026   0.00000  Uiso   1.00
Fe55   Fe    0.32722   0.61301   0.58859   0.00000  Uiso   1.00
Fe56   Fe    0.32829   0.66164   0.50641   0.00000  Uiso   1.00
Fe57   Fe    0.32420   0.82384   0.47257   0.00000  Uiso   1.00
Fe58   Fe    0.32010   0.98603   0.43873   0.00000  Uiso   1.00
Fe59   Fe    0.32312   0.77520   0.55475   0.00000  Uiso   1.00
Fe60   Fe    0.31903   0.93740   0.52091   0.00000  Uiso   1.00
Fe61   Fe    0.31796   0.88877   0.60308   0.00000  Uiso   1.00
Fe62   Fe    0.83045   0.13509   0.43640   0.00000  Uiso   1.00
Fe63   Fe    0.82938   0.08646   0.51858   0.00000  Uiso   1.00
Fe64   Fe    0.82529   0.24865   0.48474   0.00000  Uiso   1.00
Fe65   W     0.83342   0.05104   0.32358   0.00000  Uiso   1.00
Fe66   Fe    0.83180   0.16106   0.36289   0.00000  Uiso   1.00
Fe67   W     0.83432   0.34585   0.32507   0.00000  Uiso   1.00
Fe68   Fe    0.83268   0.24782   0.40350   0.00000  Uiso   1.00
Fe69   Fe    0.82972   0.44913   0.37183   0.00000  Uiso   1.00
Fe70   W     0.82748   0.63293   0.33264   0.00000  Uiso   1.00
Fe71   Fe    0.82120   0.41085   0.45089   0.00000  Uiso   1.00
Fe72   Fe    0.82705   0.53144   0.41535   0.00000  Uiso   1.00
Fe73   Fe    0.82358   0.72295   0.38968   0.00000  Uiso   1.00
Fe74   W     0.82604   0.87944   0.33476   0.00000  Uiso   1.00
Fe75   Fe    0.82831   0.03783   0.60076   0.00000  Uiso   1.00
Fe76   Fe    0.82422   0.20002   0.56692   0.00000  Uiso   1.00
Fe77   Fe    0.82012   0.36223   0.53307   0.00000  Uiso   1.00
Fe78   Fe    0.81496   0.47579   0.58141   0.00000  Uiso   1.00
Fe79   Fe    0.81603   0.52442   0.49923   0.00000  Uiso   1.00
Fe80   Fe    0.81194   0.68662   0.46539   0.00000  Uiso   1.00
Fe81   Fe    0.81767   0.82494   0.42934   0.00000  Uiso   1.00
Fe82   Fe    0.82593  -0.03596   0.40102   0.00000  Uiso   1.00
Fe83   Fe    0.81087   0.63799   0.54756   0.00000  Uiso   1.00
Fe84   Fe    0.80677   0.80019   0.51372   0.00000  Uiso   1.00
Fe85   Fe    0.80269   0.96238   0.47988   0.00000  Uiso   1.00
Fe86   Fe    0.80570   0.75155   0.59589   0.00000  Uiso   1.00
Fe87   Fe    0.80161   0.91376   0.56205   0.00000  Uiso   1.00
N88    N     0.83856   0.90239   0.21168   0.00000  Uiso   1.00
N89    N     0.33955   0.74053   0.21607   0.00000  Uiso   1.00
N90    N     0.33999   0.85281   0.27009   0.00000  Uiso   1.00
N91    N     0.83845   0.79604   0.15936   0.00000  Uiso   1.00
N92    N     0.33419   0.96001   0.16019   0.00000  Uiso   1.00
N93    N     0.84185   0.57464   0.21049   0.00000  Uiso   1.00
N94    N     0.83729   0.68830   0.27048   0.00000  Uiso   1.00
N95    N     0.34253   0.40982   0.21337   0.00000  Uiso   1.00
N96    N     0.33918   0.52354   0.26629   0.00000  Uiso   1.00
N97    N     0.84391   0.46412   0.15818   0.00000  Uiso   1.00
N98    N     0.34013   0.63151   0.16079   0.00000  Uiso   1.00
N99    N     0.84216   0.24125   0.20731   0.00000  Uiso   1.00
N100   N     0.83785   0.35432   0.26077   0.00000  Uiso   1.00
N101   N     0.34059   0.06836   0.21257   0.00000  Uiso   1.00
N102   N     0.33789   0.18837   0.26216   0.00000  Uiso   1.00
N103   N     0.84694   0.12794   0.15801   0.00000  Uiso   1.00
N104   N     0.34669   0.29636   0.15986   0.00000  Uiso   1.00
N105   N     0.81855   0.90974   0.05821   0.00000  Uiso   1.00
N106   N     0.32599   0.74228   0.05749   0.00000  Uiso   1.00
N107   N     0.32514   0.85177   0.10771   0.00000  Uiso   1.00
N108   N     0.83265   0.79544   0.00798   0.00000  Uiso   1.00
N109   N     0.32536   0.96127   0.00834   0.00000  Uiso   1.00
N110   N     0.83332   0.57642   0.05821   0.00000  Uiso   1.00
N111   N     0.83243   0.68594   0.10735   0.00000  Uiso   1.00
N112   N     0.34076   0.40896   0.05749   0.00000  Uiso   1.00
N113   N     0.33991   0.51845   0.10771   0.00000  Uiso   1.00
N114   N     0.84742   0.46212   0.00798   0.00000  Uiso   1.00
N115   N     0.34013   0.62794   0.00834   0.00000  Uiso   1.00
N116   N     0.84809   0.24310   0.05821   0.00000  Uiso   1.00
N117   N     0.84720   0.35262   0.10735   0.00000  Uiso   1.00
N118   N     0.35553   0.07564   0.05749   0.00000  Uiso   1.00
N119   N     0.35468   0.18513   0.10771   0.00000  Uiso   1.00
N120   N     0.86219   0.12880   0.00798   0.00000  Uiso   1.00
N121   N     0.35490   0.29462   0.00834   0.00000  Uiso   1.00
N122   N     0.83798   0.01985   0.26024   0.00000  Uiso   1.00
N123   N     0.84720   0.02096   0.10735   0.00000  Uiso   1.00
