# generated using pymatgen
data_Cr36Fe45W7N36
_symmetry_space_group_name_H-M   'P 1'
_cell_length_a   2.72600000
_cell_length_b   14.16800000
_cell_length_c   48.52200000
_cell_angle_alpha   90.00000000
_cell_angle_beta   90.00000000
_cell_angle_gamma   90.00000000
_symmetry_Int_Tables_number   1
_chemical_formula_structural   Cr36Fe45W7N36
_chemical_formula_sum   'Cr36 Fe45 W7 N36'
_cell_volume   1874.01513130
_cell_formula_units_Z   1
loop_
 _symmetry_equiv_pos_site_id
 _symmetry_equiv_pos_as_xyz
  1  'x, y, z'
loop_
 _atom_site_type_symbol
 _atom_site_label
 _atom_site_symmetry_multiplicity
 _atom_site_fract_x
 _atom_site_fract_y
 _atom_site_fract_z
 _atom_site_occupancy
  Cr  Cr0  1  0.34022000  0.83420000  0.18641000  1.0
  Cr  Cr1  1  0.33985000  0.94389000  0.23838000  1.0
  Cr  Cr2  1  0.83962000  0.80419000  0.24244000  1.0
  Cr  Cr3  1  0.33666000  0.73708000  0.29615000  1.0
  Cr  Cr4  1  0.83918000  0.91673000  0.29217000  1.0
  Cr  Cr5  1  0.34249000  0.50529000  0.18437000  1.0
  Cr  Cr6  1  0.34116000  0.61626000  0.23681000  1.0
  Cr  Cr7  1  0.84056000  0.69543000  0.18779000  1.0
  Cr  Cr8  1  0.83962000  0.47711000  0.23934000  1.0
  Cr  Cr9  1  0.33713000  0.40360000  0.28686000  1.0
  Cr  Cr10  1  0.83785000  0.56926000  0.29192000  1.0
  Cr  Cr11  1  0.34741000  0.16831000  0.18411000  1.0
  Cr  Cr12  1  0.34128000  0.28413000  0.23351000  1.0
  Cr  Cr13  1  0.84255000  0.36466000  0.18634000  1.0
  Cr  Cr14  1  0.83857000  0.14070000  0.23584000  1.0
  Cr  Cr15  1  0.33665000  0.07402000  0.28415000  1.0
  Cr  Cr16  1  0.83659000  0.24530000  0.28570000  1.0
  Cr  Cr17  1  0.31905000  0.85418000  0.03292000  1.0
  Cr  Cr18  1  0.31820000  0.96367000  0.08315000  1.0
  Cr  Cr19  1  0.82549000  0.79784000  0.08278000  1.0
  Cr  Cr20  1  0.33209000  0.73987000  0.13229000  1.0
  Cr  Cr21  1  0.82465000  0.90733000  0.13300000  1.0
  Cr  Cr22  1  0.33382000  0.52086000  0.03292000  1.0
  Cr  Cr23  1  0.33297000  0.63035000  0.08315000  1.0
  Cr  Cr24  1  0.82634000  0.68835000  0.03256000  1.0
  Cr  Cr25  1  0.84026000  0.46452000  0.08278000  1.0
  Cr  Cr26  1  0.34686000  0.40655000  0.13229000  1.0
  Cr  Cr27  1  0.83941000  0.57401000  0.13300000  1.0
  Cr  Cr28  1  0.34859000  0.18754000  0.03292000  1.0
  Cr  Cr29  1  0.34774000  0.29703000  0.08315000  1.0
  Cr  Cr30  1  0.84110000  0.35503000  0.03255000  1.0
  Cr  Cr31  1  0.85503000  0.13120000  0.08278000  1.0
  Cr  Cr32  1  0.36162000  0.07323000  0.13229000  1.0
  Cr  Cr33  1  0.85418000  0.24069000  0.13300000  1.0
  Cr  Cr34  1  0.84367000  0.02676000  0.18587000  1.0
  Cr  Cr35  1  0.84110000  0.02337000  0.03255000  1.0
  Fe  Fe36  1  0.32848000  0.99962000  0.36054000  1.0
  Fe  Fe37  1  0.32957000  0.09978000  0.39917000  1.0
  Fe  Fe38  1  0.34679000  0.11011000  0.47743000  1.0
  Fe  Fe39  1  0.34271000  0.27230000  0.44359000  1.0
  Fe  Fe40  1  0.34572000  0.06148000  0.55961000  1.0
  Fe  Fe41  1  0.34163000  0.22367000  0.52577000  1.0
  Fe  Fe42  1  0.33755000  0.38587000  0.49192000  1.0
  Fe  Fe44  1  0.33248000  0.29966000  0.36631000  1.0
  Fe  Fe46  1  0.32921000  0.38834000  0.40943000  1.0
  Fe  Fe47  1  0.32776000  0.58805000  0.37564000  1.0
  Fe  Fe49  1  0.33345000  0.54806000  0.45808000  1.0
  Fe  Fe50  1  0.32264000  0.67029000  0.42553000  1.0
  Fe  Fe51  1  0.32465000  0.85248000  0.38341000  1.0
  Fe  Fe52  1  0.34056000  0.17504000  0.60794000  1.0
  Fe  Fe53  1  0.33646000  0.33724000  0.57410000  1.0
  Fe  Fe54  1  0.33238000  0.49943000  0.54026000  1.0
  Fe  Fe55  1  0.32722000  0.61301000  0.58859000  1.0
  Fe  Fe56  1  0.32829000  0.66164000  0.50641000  1.0
  Fe  Fe57  1  0.32420000  0.82384000  0.47257000  1.0
  Fe  Fe58  1  0.32010000  0.98603000  0.43873000  1.0
  Fe  Fe59  1  0.32312000  0.77520000  0.55475000  1.0
  Fe  Fe60  1  0.31903000  0.93740000  0.52091000  1.0
  Fe  Fe61  1  0.31796000  0.88877000  0.60308000  1.0
  Fe  Fe62  1  0.83045000  0.13509000  0.43640000  1.0
  Fe  Fe63  1  0.82938000  0.08646000  0.51858000  1.0
  Fe  Fe64  1  0.82529000  0.24865000  0.48474000  1.0
  Fe  Fe66  1  0.83180000  0.16106000  0.36289000  1.0
  Fe  Fe68  1  0.83268000  0.24782000  0.40350000  1.0
  Fe  Fe69  1  0.82972000  0.44913000  0.37183000  1.0
  Fe  Fe71  1  0.82120000  0.41085000  0.45089000  1.0
  Fe  Fe72  1  0.82705000  0.53144000  0.41535000  1.0
  Fe  Fe73  1  0.82358000  0.72295000  0.38968000  1.0
  Fe  Fe75  1  0.82831000  0.03783000  0.60076000  1.0
  Fe  Fe76  1  0.82422000  0.20002000  0.56692000  1.0
  Fe  Fe77  1  0.82012000  0.36223000  0.53307000  1.0
  Fe  Fe78  1  0.81496000  0.47579000  0.58141000  1.0
  Fe  Fe79  1  0.81603000  0.52442000  0.49923000  1.0
  Fe  Fe80  1  0.81194000  0.68662000  0.46539000  1.0
  Fe  Fe81  1  0.81767000  0.82494000  0.42934000  1.0
  Fe  Fe82  1  0.82593000  0.96404000  0.40102000  1.0
  Fe  Fe83  1  0.81087000  0.63799000  0.54756000  1.0
  Fe  Fe84  1  0.80677000  0.80019000  0.51372000  1.0
  Fe  Fe85  1  0.80269000  0.96238000  0.47988000  1.0
  Fe  Fe86  1  0.80570000  0.75155000  0.59589000  1.0
  Fe  Fe87  1  0.80161000  0.91376000  0.56205000  1.0
  W  Fe43  1  0.33370000  0.18841000  0.32379000  1.0
  W  Fe45  1  0.33238000  0.48533000  0.33167000  1.0
  W  Fe48  1  0.32528000  0.74744000  0.34870000  1.0
  W  Fe65  1  0.83342000  0.05104000  0.32358000  1.0
  W  Fe67  1  0.83432000  0.34585000  0.32507000  1.0
  W  Fe70  1  0.82748000  0.63293000  0.33264000  1.0
  W  Fe74  1  0.82604000  0.87944000  0.33476000  1.0
  N  N88  1  0.83856000  0.90239000  0.21168000  1.0
  N  N89  1  0.33955000  0.74053000  0.21607000  1.0
  N  N90  1  0.33999000  0.85281000  0.27009000  1.0
  N  N91  1  0.83845000  0.79604000  0.15936000  1.0
  N  N92  1  0.33419000  0.96001000  0.16019000  1.0
  N  N93  1  0.84185000  0.57464000  0.21049000  1.0
  N  N94  1  0.83729000  0.68830000  0.27048000  1.0
  N  N95  1  0.34253000  0.40982000  0.21337000  1.0
  N  N96  1  0.33918000  0.52354000  0.26629000  1.0
  N  N97  1  0.84391000  0.46412000  0.15818000  1.0
  N  N98  1  0.34013000  0.63151000  0.16079000  1.0
  N  N99  1  0.84216000  0.24125000  0.20731000  1.0
  N  N100  1  0.83785000  0.35432000  0.26077000  1.0
  N  N101  1  0.34059000  0.06836000  0.21257000  1.0
  N  N102  1  0.33789000  0.18837000  0.26216000  1.0
  N  N103  1  0.84694000  0.12794000  0.15801000  1.0
  N  N104  1  0.34669000  0.29636000  0.15986000  1.0
  N  N105  1  0.81855000  0.90974000  0.05821000  1.0
  N  N106  1  0.32599000  0.74228000  0.05749000  1.0
  N  N107  1  0.32514000  0.85177000  0.10771000  1.0
  N  N108  1  0.83265000  0.79544000  0.00798000  1.0
  N  N109  1  0.32536000  0.96127000  0.00834000  1.0
  N  N110  1  0.83332000  0.57642000  0.05821000  1.0
  N  N111  1  0.83243000  0.68594000  0.10735000  1.0
  N  N112  1  0.34076000  0.40896000  0.05749000  1.0
  N  N113  1  0.33991000  0.51845000  0.10771000  1.0
  N  N114  1  0.84742000  0.46212000  0.00798000  1.0
  N  N115  1  0.34013000  0.62794000  0.00834000  1.0
  N  N116  1  0.84809000  0.24310000  0.05821000  1.0
  N  N117  1  0.84720000  0.35262000  0.10735000  1.0
  N  N118  1  0.35553000  0.07564000  0.05749000  1.0
  N  N119  1  0.35468000  0.18513000  0.10771000  1.0
  N  N120  1  0.86219000  0.12880000  0.00798000  1.0
  N  N121  1  0.35490000  0.29462000  0.00834000  1.0
  N  N122  1  0.83798000  0.01985000  0.26024000  1.0
  N  N123  1  0.84720000  0.02096000  0.10735000  1.0
