# generated using pymatgen
data_Cr5Fe9WN6
_symmetry_space_group_name_H-M   'P 1'
_cell_length_a   3.07500000
_cell_length_b   16.00000000
_cell_length_c   45.00000000
_cell_angle_alpha   90.00000000
_cell_angle_beta   90.00000000
_cell_angle_gamma   90.00000000
_symmetry_Int_Tables_number   1
_chemical_formula_structural   Cr5Fe9WN6
_chemical_formula_sum   'Cr30 Fe54 W6 N36'
_cell_volume   2214.00000000
_cell_formula_units_Z   6
loop_
 _symmetry_equiv_pos_site_id
 _symmetry_equiv_pos_as_xyz
  1  'x, y, z'
loop_
 _atom_site_type_symbol
 _atom_site_label
 _atom_site_symmetry_multiplicity
 _atom_site_fract_x
 _atom_site_fract_y
 _atom_site_fract_z
 _atom_site_occupancy
  Cr  Cr0  1  0.31798000  0.85417000  0.17713000  1.0
  Cr  Cr1  1  0.31714000  0.96366000  0.22587000  1.0
  Cr  Cr2  1  0.82443000  0.79784000  0.22551000  1.0
  Cr  Cr3  1  0.33275000  0.52085000  0.17713000  1.0
  Cr  Cr4  1  0.33191000  0.63034000  0.22587000  1.0
  Cr  Cr5  1  0.82527000  0.68835000  0.17678000  1.0
  Cr  Cr6  1  0.83919000  0.46452000  0.22551000  1.0
  Cr  Cr7  1  0.34752000  0.18753000  0.17713000  1.0
  Cr  Cr8  1  0.34668000  0.29702000  0.22587000  1.0
  Cr  Cr9  1  0.84004000  0.35503000  0.17677000  1.0
  Cr  Cr10  1  0.85396000  0.13119000  0.22551000  1.0
  Cr  Cr11  1  0.31905000  0.85418000  0.03195000  1.0
  Cr  Cr12  1  0.31820000  0.96367000  0.08069000  1.0
  Cr  Cr13  1  0.82549000  0.79784000  0.08033000  1.0
  Cr  Cr14  1  0.33209000  0.73987000  0.12838000  1.0
  Cr  Cr15  1  0.82465000  0.90733000  0.12907000  1.0
  Cr  Cr16  1  0.33382000  0.52086000  0.03195000  1.0
  Cr  Cr17  1  0.33297000  0.63035000  0.08069000  1.0
  Cr  Cr18  1  0.82634000  0.68835000  0.03160000  1.0
  Cr  Cr19  1  0.84026000  0.46452000  0.08033000  1.0
  Cr  Cr20  1  0.34686000  0.40655000  0.12838000  1.0
  Cr  Cr21  1  0.83941000  0.57401000  0.12907000  1.0
  Cr  Cr22  1  0.34859000  0.18754000  0.03195000  1.0
  Cr  Cr23  1  0.34774000  0.29703000  0.08069000  1.0
  Cr  Cr24  1  0.84110000  0.35503000  0.03159000  1.0
  Cr  Cr25  1  0.85503000  0.13120000  0.08033000  1.0
  Cr  Cr26  1  0.36162000  0.07323000  0.12838000  1.0
  Cr  Cr27  1  0.85418000  0.24069000  0.12907000  1.0
  Cr  Cr28  1  0.84004000  0.02336000  0.17677000  1.0
  Cr  Cr29  1  0.84110000  0.02337000  0.03159000  1.0
  Fe  Fe30  1  0.35304000  0.02866000  0.35102000  1.0
  Fe  Fe31  1  0.34788000  0.14090000  0.39822000  1.0
  Fe  Fe32  1  0.34679000  0.09001000  0.47784000  1.0
  Fe  Fe33  1  0.34271000  0.25313000  0.44543000  1.0
  Fe  Fe34  1  0.34572000  0.03913000  0.55745000  1.0
  Fe  Fe35  1  0.34163000  0.20224000  0.52505000  1.0
  Fe  Fe36  1  0.33755000  0.36537000  0.49264000  1.0
  Fe  Fe37  1  0.34895000  0.19178000  0.31861000  1.0
  Fe  Fe38  1  0.34378000  0.30402000  0.36582000  1.0
  Fe  Fe39  1  0.33969000  0.46714000  0.33342000  1.0
  Fe  Fe40  1  0.33862000  0.41625000  0.41302000  1.0
  Fe  Fe41  1  0.33453000  0.57938000  0.38062000  1.0
  Fe  Fe42  1  0.33043000  0.74250000  0.34822000  1.0
  Fe  Fe43  1  0.33345000  0.52848000  0.46024000  1.0
  Fe  Fe44  1  0.32936000  0.69161000  0.42783000  1.0
  Fe  Fe45  1  0.32527000  0.85474000  0.39542000  1.0
  Fe  Fe46  1  0.34056000  0.15136000  0.60466000  1.0
  Fe  Fe47  1  0.33646000  0.31448000  0.57225000  1.0
  Fe  Fe48  1  0.33238000  0.47760000  0.53985000  1.0
  Fe  Fe49  1  0.32722000  0.58984000  0.58706000  1.0
  Fe  Fe50  1  0.32829000  0.64072000  0.50744000  1.0
  Fe  Fe51  1  0.32420000  0.80385000  0.47504000  1.0
  Fe  Fe52  1  0.32010000  0.96697000  0.44263000  1.0
  Fe  Fe53  1  0.32312000  0.75295000  0.55465000  1.0
  Fe  Fe54  1  0.31903000  0.91608000  0.52225000  1.0
  Fe  Fe55  1  0.31796000  0.86520000  0.60186000  1.0
  Fe  Fe56  1  0.83045000  0.11612000  0.43809000  1.0
  Fe  Fe57  1  0.82938000  0.06524000  0.51770000  1.0
  Fe  Fe58  1  0.82529000  0.22835000  0.48530000  1.0
  Fe  Fe59  1  0.83669000  0.05478000  0.31127000  1.0
  Fe  Fe60  1  0.83153000  0.16701000  0.35847000  1.0
  Fe  Fe61  1  0.82743000  0.33013000  0.32607000  1.0
  Fe  Fe62  1  0.82636000  0.27924000  0.40568000  1.0
  Fe  Fe63  1  0.82227000  0.44236000  0.37328000  1.0
  Fe  Fe64  1  0.81819000  0.60549000  0.34087000  1.0
  Fe  Fe65  1  0.82120000  0.39148000  0.45289000  1.0
  Fe  Fe66  1  0.81710000  0.55460000  0.42048000  1.0
  Fe  Fe67  1  0.81302000  0.71772000  0.38808000  1.0
  Fe  Fe68  1  0.80893000  0.88085000  0.35567000  1.0
  Fe  Fe69  1  0.82831000  0.01435000  0.59732000  1.0
  Fe  Fe70  1  0.82422000  0.17747000  0.56492000  1.0
  Fe  Fe71  1  0.82012000  0.34059000  0.53250000  1.0
  Fe  Fe72  1  0.81496000  0.45282000  0.57972000  1.0
  Fe  Fe73  1  0.81603000  0.50371000  0.50010000  1.0
  Fe  Fe74  1  0.81194000  0.66683000  0.46770000  1.0
  Fe  Fe75  1  0.80786000  0.82996000  0.43528000  1.0
  Fe  Fe76  1  0.80308000  0.00639000  0.39023000  1.0
  Fe  Fe77  1  0.81087000  0.61595000  0.54730000  1.0
  Fe  Fe78  1  0.80677000  0.77907000  0.51490000  1.0
  Fe  Fe79  1  0.80269000  0.94219000  0.48250000  1.0
  Fe  Fe80  1  0.80570000  0.72818000  0.59452000  1.0
  Fe  Fe81  1  0.80161000  0.89130000  0.56211000  1.0
  Fe  Fe82  1  0.32387000  0.91109000  0.31617000  1.0
  Fe  Fe83  1  0.81185000  0.76953000  0.30843000  1.0
  W  W84  1  0.33102000  0.73987000  0.27356000  1.0
  W  W85  1  0.82358000  0.90733000  0.27425000  1.0
  W  W86  1  0.34579000  0.40655000  0.27356000  1.0
  W  W87  1  0.83835000  0.57401000  0.27425000  1.0
  W  W88  1  0.36056000  0.07322000  0.27356000  1.0
  W  W89  1  0.85312000  0.24068000  0.27425000  1.0
  N  N90  1  0.81748000  0.90973000  0.20167000  1.0
  N  N91  1  0.32492000  0.74227000  0.20097000  1.0
  N  N92  1  0.32408000  0.85176000  0.24971000  1.0
  N  N93  1  0.83159000  0.79543000  0.15292000  1.0
  N  N94  1  0.32430000  0.96126000  0.15327000  1.0
  N  N95  1  0.83225000  0.57641000  0.20167000  1.0
  N  N96  1  0.83137000  0.68594000  0.24936000  1.0
  N  N97  1  0.33969000  0.40895000  0.20097000  1.0
  N  N98  1  0.33885000  0.51844000  0.24971000  1.0
  N  N99  1  0.84636000  0.46211000  0.15292000  1.0
  N  N100  1  0.33907000  0.62794000  0.15327000  1.0
  N  N101  1  0.84702000  0.24309000  0.20167000  1.0
  N  N102  1  0.84614000  0.35262000  0.24936000  1.0
  N  N103  1  0.35446000  0.07563000  0.20097000  1.0
  N  N104  1  0.35362000  0.18512000  0.24971000  1.0
  N  N105  1  0.86113000  0.12879000  0.15292000  1.0
  N  N106  1  0.35384000  0.29462000  0.15327000  1.0
  N  N107  1  0.81855000  0.90974000  0.05649000  1.0
  N  N108  1  0.32599000  0.74228000  0.05579000  1.0
  N  N109  1  0.32514000  0.85177000  0.10453000  1.0
  N  N110  1  0.83265000  0.79544000  0.00774000  1.0
  N  N111  1  0.32536000  0.96127000  0.00809000  1.0
  N  N112  1  0.83332000  0.57642000  0.05649000  1.0
  N  N113  1  0.83243000  0.68594000  0.10418000  1.0
  N  N114  1  0.34076000  0.40896000  0.05579000  1.0
  N  N115  1  0.33991000  0.51845000  0.10453000  1.0
  N  N116  1  0.84742000  0.46212000  0.00774000  1.0
  N  N117  1  0.34013000  0.62794000  0.00809000  1.0
  N  N118  1  0.84809000  0.24310000  0.05649000  1.0
  N  N119  1  0.84720000  0.35262000  0.10418000  1.0
  N  N120  1  0.35553000  0.07564000  0.05579000  1.0
  N  N121  1  0.35468000  0.18513000  0.10453000  1.0
  N  N122  1  0.86219000  0.12880000  0.00774000  1.0
  N  N123  1  0.35490000  0.29462000  0.00809000  1.0
  N  N124  1  0.84614000  0.02096000  0.24936000  1.0
  N  N125  1  0.84720000  0.02096000  0.10418000  1.0
